  54
 
 C         -2.4361789035        2.7358268961       -1.3527406619
 C          0.5624215449        0.2304207096       -0.0693794983
 C         -0.6215538580        2.8157171300        0.7059777940
 C          1.5255320334       -0.1431270657       -1.1220111717
 C          2.5359186761        1.5784379085        0.1175593316
 N          3.9892044341        1.2960060035        0.2109793544
 C          4.3002263180       -0.7199977279       -0.5814949053
 C          3.3018042775       -1.7832343783       -0.8311810873
 C          1.9799278741       -1.4824372871       -0.9822586640
 N          0.9803109350       -2.4319683728       -0.8008400897
 C         -0.3226924809       -2.0992631169       -0.4983463976
 C         -1.3203636269       -2.9664439893       -0.7172235007
 C         -3.1167495635       -2.2483129630        0.9200644233
 N         -3.3399929922       -0.9254325286        1.4831467167
 C         -2.3561462748        0.1052833617        1.0482951836
 C         -0.5624695295       -0.7558995167        0.1312246485
 O         -1.7184792572        3.0347322133        1.4840632867
 S         -0.8498635313        1.6610623884       -0.7857317764
 O         -3.5547207902        2.7239843160       -0.5255953242
 C          1.5561656339        0.7207622867        0.9039312443
 C          2.0914975432       -0.0890063829        1.9358556615
 C          3.4111691827       -0.4070603334        1.9409290240
 C          4.3202992542        0.0045933539        0.8542990193
 C          3.9724601516        0.6691876198       -1.1367887040
 C          2.4835921278        0.9865705918       -1.3047034331
 C         -1.7942730780        0.0907930238       -0.3829807659
 C         -1.1778299303       -0.7207014686        1.5516431701
 C         -2.2060080994       -1.7681864512        1.9711026430
 C         -2.7755120835       -2.6440560027       -0.5074200975
 C         -3.1502143626       -1.5968794742       -1.5229445911
 C         -2.6749662562       -0.3600563950       -1.4788010705
 H         -2.6466490977        2.4003946821       -2.3685190772
 H         -4.0076233382        1.8743555998       -0.5926701651
 H         -2.0565007991        3.7560095639       -1.3917141102
 H         -2.4411737548        3.4319992380        0.9675543704
 H          0.1496108123        2.3282617720        1.3114356141
 H         -0.2310250305        3.7217818914        0.2305334948
 H          2.3656932882        2.6507207123        0.2501457873
 H          5.3059108868       -1.0607291142       -0.8373057067
 H          3.6039324917       -2.8062251552       -0.6565883953
 H          1.1923660273       -3.4007396183       -0.9776830049
 H         -1.0941299718       -3.9274854780       -1.1556392546
 H         -3.8878608501       -2.8923981697        1.3404863073
 H         -2.6395112380        1.0569337363        1.4848702201
 H          1.4486000135       -0.5309885046        2.6855637504
 H          3.8216561772       -1.0291987796        2.7226533372
 H          5.3526382562        0.0495567378        1.2187009738
 H          4.6518188413        1.0823128128       -1.8821824334
 H          2.2322116649        1.6444892099       -2.1360433880
 H         -0.5447401416       -0.3706988047        2.3567121686
 H         -2.2068833911       -2.2017352325        2.9611267306
 H         -3.3523496035       -3.5479965714       -0.7175547944
 H         -3.7802677354       -1.9063894046       -2.3431270314
 H         -2.9027402589        0.3370710145       -2.2691996670
