  69
 
 C          8.8214713831       -3.4241339001       -0.4470002293
 C          8.8512560291       -2.2095174607       -1.1144003950
 C          7.8095043182       -1.3116126954       -0.9749644922
 C          6.7219658564       -1.6212121392       -0.1582217373
 C          5.5908155753       -0.7121559147       -0.0283167570
 N          4.3365538759       -1.1833190731       -0.0649270392
 C          3.5339292327       -0.1164390312       -0.0243122083
 C          2.1377800461       -0.1505854777       -0.0697703778
 C          1.4428564325       -1.3964137796       -0.1348161536
 C          0.0865062467       -1.4106885609       -0.1105347668
 C         -0.6475308776       -0.1864067070       -0.0221784197
 C         -2.0731066692       -0.1342629012       -0.0191994448
 C         -2.7778716812        0.9735976885        0.5134340584
 C         -4.1448421871        1.0209131058        0.5219685271
 C         -4.9074500091       -0.0387774269       -0.0027741328
 N         -6.2915960838        0.0070480505        0.0055611532
 C         -6.9606208643        1.2297633326       -0.1238763937
 C         -6.4771864480        2.2123481183       -0.9906994754
 C         -7.1448052656        3.4150670483       -1.1142663894
 C         -8.2986113147        3.6558924168       -0.3836619012
 C         -8.7835408983        2.6818184706        0.4760906163
 C         -8.1230940237        1.4763787980        0.6098076961
 C         -7.0373751584       -1.1702645656        0.1401119349
 C         -6.6126283006       -2.1806908538        1.0056073670
 C         -7.3542377380       -3.3387325737        1.1338450082
 C         -8.5244368986       -3.5067133228        0.4088978070
 C         -8.9513359513       -2.5044621237       -0.4491877834
 C         -8.2167916820       -1.3431034798       -0.5873727098
 C         -4.2245579326       -1.1463721824       -0.5374057552
 C         -2.8574670612       -1.1895050205       -0.5469082379
 C          0.1486572123        0.9906440126       -0.0009048407
 N          1.4441830813        1.0250568881       -0.0371315242
 O          4.2351457280        1.0570330005        0.0579617176
 C          5.5560998024        0.6933403741        0.0682652623
 C          6.5485420008        1.7083082772        0.2214458024
 C          6.2033921791        3.0516644012       -0.0194783329
 C          7.1407119097        4.0513978165        0.1145434974
 C          8.4405104920        3.7486869054        0.5005844181
 C          8.7869161277        2.4302082771        0.7690094778
 C          7.8601519270        1.4192549071        0.6378269072
 C          6.6871487667       -2.8552400250        0.4891341284
 C          7.7350408559       -3.7459595066        0.3510321083
 H          9.6395318916       -4.1209539514       -0.5551967519
 H          9.6881507416       -1.9616171201       -1.7508381701
 H          7.8245201018       -0.3727745385       -1.5093534135
 H          2.0336273933       -2.2979072455       -0.1653019525
 H         -0.4422918152       -2.3519627342       -0.1108538878
 H         -2.2246704594        1.7822031118        0.9649724038
 H         -4.6519670262        1.8651145841        0.9657724961
 H         -5.5884669721        2.0171231291       -1.5725465034
 H         -6.7663912667        4.1661066012       -1.7915669230
 H         -8.8173290888        4.5969780088       -0.4845832302
 H         -9.6779383762        2.8655966522        1.0524704924
 H         -8.4924673914        0.7231530491        1.2897686254
 H         -5.7101401694       -2.0412966148        1.5822844165
 H         -7.0206857850       -4.1119621527        1.8098338295
 H         -9.1009203088       -4.4132357038        0.5128428583
 H         -9.8584538337       -2.6319765318       -1.0208375362
 H         -8.5413327927       -0.5680746625       -1.2658160204
 H         -4.7925384775       -1.9550283697       -0.9735958720
 H         -2.3662206318       -2.0330527195       -1.0057849018
 H         -0.3248162048        1.9647128023       -0.0215305420
 H          5.1919874128        3.2796763041       -0.3218410576
 H          6.8618608273        5.0763398073       -0.0838369282
 H          9.1739550974        4.5344121477        0.6020148941
 H          9.7906074644        2.1930089730        1.0909377213
 H          8.1296247546        0.4024337590        0.8768137787
 H          5.8311894930       -3.0960469144        1.1015084576
 H          7.7032486450       -4.6954517051        0.8652568942
