  66
 
 C         11.9290260505        0.5039994744       -0.2041603943
 C         11.2214235334       -0.4952524934       -0.8570027560
 C          9.8397648418       -0.4749699712       -0.8079849467
 C          9.2066713178        0.5505044060       -0.1020945397
 C          7.7423039834        0.6156580931       -0.0222662176
 C          7.1042119775        1.6347660102        0.6881065671
 C          5.7251749357        1.6551823471        0.7350466883
 C          4.9992313271        0.6634465985        0.0721441603
 C          3.5336046468        0.6417076865        0.0748483507
 C          2.8018124102        1.8289021199       -0.0272779725
 C          1.4307911910        1.7928618233       -0.0479134408
 C          0.7145265098        0.5892579815        0.0395773188
 C         -0.7340413432        0.5603278738        0.0039676655
 C         -1.4931083758        1.7352728634       -0.1106540770
 C         -2.8641081942        1.7174528568       -0.1518251100
 C         -3.5518339704        0.5018155371       -0.0855114905
 C         -5.0164685261        0.4618153371       -0.1284880098
 C         -5.7107481806       -0.5312629641       -0.8227418531
 C         -7.0906375017       -0.5226111618       -0.8234688328
 C         -7.7613365065        0.4868289232       -0.1295678821
 C         -9.2280997376        0.5410930091       -0.1039562498
 C         -9.8947310605        1.5614163519        0.5780499283
 C        -11.2773833781        1.5713981919        0.5750970613
 C        -11.9525748979        0.5668127379       -0.1034492704
 C        -11.2000923340       -0.4028323160       -0.7507429396
 N         -9.8807572104       -0.4217990470       -0.7560442407
 N         -7.1045826005        1.4374390654        0.5368887347
 C         -5.7888124511        1.4194762252        0.5347260217
 C         -2.8171211029       -0.6651503317        0.0276886282
 C         -1.4188411787       -0.6727916423        0.0790286261
 C         -0.6709458847       -1.9124455305        0.2090112519
 C         -1.3165653042       -3.1546333584        0.2927330558
 C         -0.6162821702       -4.3304402202        0.4220202017
 C          0.7713526587       -4.3008327513        0.4767005861
 C          1.4293967771       -3.0967435309        0.3941390768
 C          0.7400745248       -1.8832108307        0.2557445253
 C          1.4435462890       -0.6150780989        0.1567711201
 C          2.8414298744       -0.5526909827        0.1669516477
 C          5.7403432642       -0.3040758720       -0.6121834379
 N          7.0550014428       -0.3334153406       -0.6595330379
 N          9.8904296993        1.5086463445        0.5245842658
 C         11.2084984015        1.4796559415        0.4699068846
 H         13.0075018680        0.5275086360       -0.2164647974
 H         11.7403459249       -1.2758532040       -1.3946893445
 H          9.2367005377       -1.2228741771       -1.2967050367
 H          7.7039156172        2.3784406673        1.1874142702
 H          5.2088785717        2.4212926678        1.2955991244
 H          3.3179231171        2.7732134321       -0.1175071839
 H          0.9063256927        2.7295505317       -0.1398614307
 H         -1.0027943108        2.6926835408       -0.1727094570
 H         -3.4135275575        2.6409725239       -0.2586404991
 H         -5.1693517617       -1.2879504965       -1.3725328341
 H         -7.6666913947       -1.2670210837       -1.3488762200
 H         -9.3158961555        2.3137228313        1.0888409134
 H        -11.8219851357        2.3479910932        1.0928186536
 H        -13.0305488324        0.5354554267       -0.1316008211
 H        -11.6749921181       -1.2095822442       -1.2956470213
 H         -5.3177403408        2.2055523301        1.1119833132
 H         -3.3642081293       -1.5902065157        0.1017876336
 H         -2.3920730229       -3.2115035573        0.2586203231
 H         -1.1438737786       -5.2710403736        0.4836948820
 H          1.3319942922       -5.2179776872        0.5831534095
 H          2.5059212248       -3.1079619013        0.4419344476
 H          3.4216479029       -1.4548123695        0.2670049044
 H          5.2434123366       -1.0881129338       -1.1704845198
 H         11.7095697044        2.2830135072        0.9960006229
