  74
 
 N         10.5059937167       -1.1707146282       -0.5530130220
 C          9.3860599290       -0.9315199157       -0.4357764065
 C          8.0195633149       -0.6397504179       -0.2924143039
 C          7.3089879672       -0.0429751553       -1.3434466696
 C          5.9752499683        0.2519646702       -1.1935244076
 C          5.2904195858       -0.0511182619       -0.0038524428
 C          3.8802724712        0.2564206792        0.1485864160
 C          2.9682519803       -0.7598752987        0.5775596848
 C          3.3734669084       -2.0881071383        0.7485565938
 C          2.5131211289       -3.0522875188        1.2634651943
 C          1.2308317655       -2.6975965269        1.6318128389
 C          0.7812477612       -1.4009841571        1.4078078280
 C          1.5991395700       -0.4328908256        0.8139324361
 C          1.1080421849        0.8667584396        0.4749942912
 C         -0.2987206354        1.1812498925        0.6603678622
 C         -0.6901036372        2.3219445271        1.3813043688
 C         -2.0185590688        2.6230302665        1.6017365791
 C         -2.9949351909        1.7807358000        1.0844726202
 C         -2.6134393992        0.6430097308        0.3513848394
 C         -1.2941514110        0.3361505655        0.1392233936
 C         -3.8308674232       -0.1293105087       -0.0995290655
 C         -3.8196826952       -1.5568454934        0.3948855093
 C         -3.7599794603       -2.0110517379        1.6944680528
 C         -3.7422495368       -3.3820270926        1.9161634802
 C         -3.7846724200       -4.2733155495        0.8541461941
 C         -3.8455343621       -3.8195880540       -0.4542747423
 C         -3.8624303317       -2.4531380347       -0.6829866767
 C         -3.9198757547       -1.6861215406       -1.9182054518
 C         -3.9846445026       -2.0895671242       -3.2421253787
 C         -4.0361471149       -1.1188251893       -4.2302783047
 C         -4.0217544214        0.2295924016       -3.9054669383
 C         -3.9554444610        0.6414598198       -2.5806411248
 C         -3.9053212847       -0.3209319134       -1.5957382354
 C         -4.9530503717        0.7071322126        0.4665444108
 C         -6.3104759796        0.4915744479        0.3777460501
 C         -7.1671781765        1.4051153933        0.9796190122
 C         -6.6682006437        2.5098498404        1.6556077493
 C         -5.3040018919        2.7301615683        1.7497397139
 C         -4.4415929273        1.8224532011        1.1518487940
 C          2.0036367025        1.8555463887       -0.0383768153
 C          1.5464319775        3.0987056988       -0.4899344866
 C          2.4281335859        4.1009577055       -0.8799881030
 C          3.7892759600        3.8785240636       -0.8200329773
 C          4.2674689618        2.6247907121       -0.4531835845
 C          3.4004059421        1.5762726027       -0.1270168259
 C          6.0140734030       -0.6605399090        1.0358908819
 C          7.3526620467       -0.9411666034        0.9035637974
 H          7.8192308801        0.1759027022       -2.2706392249
 H          5.4281757365        0.6856013249       -2.0178274262
 H          4.3744282027       -2.3787947223        0.4691044871
 H          2.8605239322       -4.0672098110        1.3864475514
 H          0.5647754308       -3.4226261885        2.0755719726
 H         -0.2223413622       -1.1396832537        1.7046362528
 H          0.0769031879        2.9488262313        1.8127530218
 H         -2.2913423282        3.4942368793        2.1787349486
 H         -1.0161417591       -0.5242018431       -0.4524321989
 H         -3.7275704929       -1.3169020969        2.5222925924
 H         -3.6958090977       -3.7579903480        2.9280192868
 H         -3.7701816750       -5.3358818448        1.0505301536
 H         -3.8783276072       -4.5181839345       -1.2772839340
 H         -3.9969669535       -3.1382232011       -3.5004679465
 H         -4.0885084269       -1.4155312170       -5.2680816432
 H         -4.0633675992        0.9687308365       -4.6923668463
 H         -3.9452475865        1.6923782506       -2.3289769501
 H         -6.7006112319       -0.3680119157       -0.1482496705
 H         -8.2350828465        1.2535324315        0.9197159026
 H         -7.3547935841        3.2062415060        2.1151950464
 H         -4.9204058903        3.5904832706        2.2779405009
 H          0.4849282972        3.2850158387       -0.5416169142
 H          2.0416441746        5.0538868383       -1.2097522741
 H          4.4866882490        4.6637031513       -1.0712303990
 H          5.3339104419        2.4652101353       -0.4143593974
 H          5.5140375750       -0.8706437511        1.9699781324
 H          7.9029404147       -1.3899146568        1.7182649084
