  99
 
 C          7.1733862791       -2.9403944811        1.6015576854
 C          6.6132820958       -4.1986406685        1.7590965686
 C          5.3155283853       -4.4361201178        1.3504035257
 C          4.5610696242       -3.4070354028        0.7898837544
 C          3.1971851767       -3.6641537744        0.3250569322
 N          2.7986606611       -4.9311654518        0.2209723553
 C          1.5460684583       -5.1670011568       -0.2835776243
 C          1.0913083432       -6.5270995026       -0.4119868106
 C         -0.1957742438       -6.8054660298       -0.8895979504
 C         -0.6251183957       -8.1092124383       -1.0057110834
 C          0.2128521436       -9.1583149220       -0.6507156194
 C          1.4896805048       -8.8917312053       -0.1770639160
 C          1.9295895430       -7.5908700856       -0.0568697025
 N          0.7812262704       -4.1674799692       -0.6438799110
 C          1.1889834356       -2.9054421699       -0.4971479806
 C          0.3596819788       -1.8141164964       -0.8937840153
 C         -0.8147538665       -2.0225835440       -1.6379103453
 C         -1.5602519627       -0.9460480893       -2.0621736238
 C         -1.1901856771        0.3503224152       -1.7346467580
 C         -0.0595263614        0.5757420563       -0.9419563240
 C          0.3155630525        1.9338385704       -0.5134142284
 C          1.6479575785        2.3188867473       -0.5731808613
 C          2.0491189480        3.5906950678       -0.1829369873
 N          3.4118374704        3.9133698029       -0.1761448793
 C          4.3934209817        3.1641690217        0.4414303980
 C          4.2749477326        2.0018711298        1.1905696696
 C          5.4235978531        1.4729625868        1.7470660619
 C          6.6640423795        2.0803060563        1.5641178437
 C          6.7854204123        3.2480386235        0.8353101486
 C          5.6435675598        3.8030894755        0.2744477450
 C          5.3921617476        4.9960712283       -0.4873473287
 C          6.2055841713        6.0105738593       -0.9714462609
 C          5.6262606369        7.0333484174       -1.6979120993
 C          4.2573472225        7.0450382952       -1.9550806572
 C          3.4267289712        6.0455241199       -1.4851392393
 C          3.9998206910        5.0275589971       -0.7361141221
 C          1.0948948971        4.5185526446        0.2253551407
 C         -0.2328813874        4.1457342281        0.2810756996
 C         -0.6381575917        2.8559774211       -0.0503131890
 C         -2.0431863415        2.4637686379        0.1275089791
 C         -3.0763661512        3.2406633583       -0.3899493864
 C         -4.3898702078        2.8265195796       -0.2900580359
 C         -4.6951548761        1.6296413243        0.3517806837
 N         -6.0130894925        1.1617337493        0.3986608203
 C         -7.1271096213        1.8779188445        0.7842827832
 C         -7.2188643780        3.1731939478        1.2740886670
 C         -8.4716983164        3.6452266787        1.6170943561
 C         -9.6083791183        2.8508032253        1.4877527868
 C         -9.5198611154        1.5522394848        1.0236531374
 C         -8.2728365411        1.0559492641        0.6718722845
 C         -7.8157138492       -0.2166523724        0.1837753735
 C         -8.4591199669       -1.4021513196       -0.1429614903
 C         -7.7028026217       -2.4540842607       -0.6231250548
 C         -6.3259249310       -2.3290193961       -0.7932223098
 C         -5.6623153301       -1.1592205819       -0.4751247629
 C         -6.4142902483       -0.1082041414        0.0317339410
 C         -3.6721632830        0.8800085654        0.9295412100
 C         -2.3629371482        1.2919084729        0.8133864763
 C          0.7155029650       -0.5012187600       -0.5506515505
 N          2.4368253191       -2.6472212330        0.0136061742
 C          5.1252963925       -2.1411499291        0.6423777899
 C          6.4282324611       -1.9145142458        1.0404006435
 H          8.1918841414       -2.7600741271        1.9130429334
 H          7.1943528920       -4.9971525015        2.1968167274
 H          4.8681960287       -5.4122128261        1.4593596308
 H         -0.8376163165       -5.9808494482       -1.1597690639
 H         -1.6193498125       -8.3175385731       -1.3742652960
 H         -0.1285359062      -10.1787416328       -0.7430148038
 H          2.1419397999       -9.7079300707        0.0987740026
 H          2.9210610090       -7.3697236879        0.3080472098
 H         -1.1002714435       -3.0327816548       -1.8866985685
 H         -2.4443904884       -1.1080347487       -2.6629197568
 H         -1.7680521740        1.1852263084       -2.1004779297
 H          2.3852966319        1.6255152364       -0.9493153799
 H          3.3157096921        1.5339225284        1.3512792819
 H          5.3549776777        0.5730613589        2.3399599188
 H          7.5404609374        1.6363197781        2.0130218109
 H          7.7447529690        3.7270825608        0.7105122471
 H          7.2687992608        5.9956159551       -0.7852545551
 H          6.2416080019        7.8335285694       -2.0811853723
 H          3.8364609980        7.8510347451       -2.5377365224
 H          2.3694908085        6.0519280312       -1.7032800857
 H          1.4015414420        5.5078103276        0.5295499789
 H         -0.9701168422        4.8523240402        0.6338578517
 H         -2.8424597174        4.1533886138       -0.9186679446
 H         -5.1808906600        3.4078790169       -0.7398466419
 H         -6.3406819575        3.7890813198        1.3957720260
 H         -8.5708379360        4.6510050666        1.9977001812
 H        -10.5698946079        3.2567458828        1.7643611438
 H        -10.3993441623        0.9320762227        0.9391573678
 H         -9.5284585179       -1.4942873862       -0.0277076700
 H         -8.1837760802       -3.3858248713       -0.8807672889
 H         -5.7638459187       -3.1633636328       -1.1854363770
 H         -4.5973822779       -1.0663900914       -0.6267155868
 H         -3.9140819550       -0.0227958578        1.4695285255
 H         -1.5752827945        0.7050653645        1.2606489543
 H          1.5930893400       -0.3562547736        0.0612175284
 H          4.5348989066       -1.3516171697        0.2030112592
 H          6.8669042048       -0.9365695824        0.9074807200
