  68
 
 C         -6.3393487266        0.2931231639        2.2773833870
 C         -5.2538633716       -0.5456873172        2.4976257587
 C         -4.1169429993       -0.4320821857        1.7309055997
 C         -4.0143235885        0.5433735914        0.7179432728
 C         -2.8374873618        0.6286011582       -0.0916288825
 C         -2.0344217089       -0.5873846388       -0.2832354502
 C         -2.7224832828       -1.7795105804       -0.7026965206
 C         -2.2966200189       -3.0622397400       -0.3114800380
 C         -2.9941409329       -4.1884637983       -0.6911961506
 C         -4.1347219865       -4.0815327847       -1.4747031295
 C         -4.5808288857       -2.8237865998       -1.8583170587
 C         -3.8954448512       -1.6926966721       -1.4747904770
 C         -0.6358879032       -0.5339936084       -0.0746141227
 C          0.2579103557       -1.4484469850       -0.6869841650
 C          1.6140289084       -1.3291265794       -0.5488915994
 C          2.1750057950       -0.2961476920        0.2185308629
 N          3.5529681520       -0.1623646540        0.3362652503
 C          4.1334908825        1.1102016077        0.4182335056
 C          5.2407380500        1.3280619782        1.2389518619
 C          5.8161543014        2.5819668728        1.3113598795
 C          5.2963188189        3.6364288434        0.5773133711
 C          4.1944829497        3.4257287680       -0.2367938628
 C          3.6164861872        2.1739712514       -0.3226127557
 C          4.3731849235       -1.2984176288        0.3427239319
 C          3.9727481359       -2.4535233985        1.0154054805
 C          4.7823261465       -3.5729088342        1.0167759191
 C          6.0012076420       -3.5583693101        0.3570871593
 C          6.4051958393       -2.4120302893       -0.3091676394
 C          5.5998708092       -1.2896018001       -0.3221741325
 C          1.3062530353        0.6098351487        0.8463181385
 C         -0.0493226261        0.4982188542        0.7009363313
 C         -2.4142901130        1.8366669287       -0.7264427024
 C         -1.5855054936        1.7993611704       -1.8684863888
 C         -1.1281473710        2.9567788585       -2.4554059263
 C         -1.4639830966        4.1969211901       -1.9266492573
 C         -2.2657957350        4.2586665339       -0.7937255370
 C         -2.7349802972        3.1074583051       -0.2025665803
 C         -5.1332316067        1.3737939571        0.5026370316
 C         -6.2703902569        1.2450765654        1.2685845604
 H         -7.2320207117        0.1991401943        2.8779292472
 H         -5.3017735657       -1.2927472757        3.2775313898
 H         -3.2727944041       -1.0792544053        1.9192376082
 H         -1.4361584743       -3.1582966091        0.3349057499
 H         -2.6524963304       -5.1624751227       -0.3690183694
 H         -4.6761545484       -4.9669445553       -1.7738533595
 H         -5.4720976685       -2.7304050483       -2.4630917938
 H         -4.2445627518       -0.7194823471       -1.7892165695
 H         -0.1400851869       -2.2133948321       -1.3365812705
 H          2.2695279642       -2.0172967863       -1.0633899410
 H          5.6407577888        0.5100164610        1.8201324030
 H          6.6716791587        2.7384568480        1.9519809244
 H          5.7467404587        4.6156077121        0.6393499321
 H          3.7859914082        4.2400451364       -0.8172178397
 H          2.7649064318        2.0097226766       -0.9668084515
 H          3.0282987780       -2.4615325907        1.5396305135
 H          4.4627050196       -4.4601734702        1.5435275261
 H          6.6318686579       -4.4345511903        0.3623236143
 H          7.3511916502       -2.3939555952       -0.8302915973
 H          5.9113536906       -0.4007414955       -0.8511258068
 H          1.7192159570        1.3968806020        1.4608355525
 H         -0.6949194547        1.1943546242        1.2147955115
 H         -1.3333806642        0.8414576604       -2.2995670583
 H         -0.5047178246        2.8994848470       -3.3369391744
 H         -1.1001530405        5.1036159794       -2.3868956847
 H         -2.5156368363        5.2191185854       -0.3646263768
 H         -3.3151067438        3.1707755766        0.7064741902
 H         -5.1124832557        2.0868185448       -0.3087705338
 H         -7.1195815257        1.8858846312        1.0757783147
