102
 xtb: 6.7.1 (edcfbbe)
C            9.91517959063397       -3.62494068670911       -2.74338520061032
C            8.54859859455411       -3.68201295872821       -2.55716457994439
C            7.91897642768728       -2.79097939995194       -1.70101908870859
C            8.64847273302128       -1.83328083402033       -1.00646305513726
C           10.03052054696933       -1.76358901419525       -1.22820519043832
C           10.65429037893267       -2.65481488121821       -2.08170569357669
O           10.82537815670091       -0.81195022890629       -0.63803299458761
C           10.21368719988853        0.09339937301050        0.20117743260657
C           11.02384901666893        1.04654892793806        0.79035439348182
C           10.48734152186000        1.97349187365018        1.67244531578335
C            9.14052084374327        1.92564447744358        1.97122704987916
C            8.32365323294706        0.97325777530751        1.38038607781817
C            8.83872272379053        0.05794348678158        0.47011877417288
N            8.04419501819934       -0.91620778125337       -0.14239446993875
C            6.65750610012185       -0.97289682276491        0.11035977274221
C            6.10338115676655       -2.08942150680427        0.73492948577280
C            4.74853687267203       -2.14248077001754        0.98597304918033
C            3.92252459607832       -1.07881236670691        0.61880513740260
C            2.49338524520206       -1.13204440406379        0.89003824601580
N            2.01485734655626       -2.11954733478297        1.66089860687013
N            0.74348576809185       -2.33310582763207        1.63429899538891
C           -0.10422709231829       -1.52481102924512        1.01495250294341
C           -1.47867908748608       -1.97398433562754        0.84302507246369
C           -2.04716175260245       -2.85321542039600        1.76643305428248
C           -3.34980453543817       -3.28141304672703        1.61590124465325
C           -4.10662805671115       -2.85106510260303        0.52813226636412
N           -5.44275849388104       -3.27701919453679        0.37320736987878
C           -5.74355932317647       -4.62126673825616        0.13516716424414
C           -4.75959433048572       -5.59939843719213        0.05250031440914
C           -5.09320255876480       -6.92454715568208       -0.18612131892706
C           -6.41367850959785       -7.29401820012169       -0.35500114687247
C           -7.40582631728509       -6.32481530712022       -0.30571755225367
C           -7.07761755618862       -5.00203679329810       -0.07180498361822
O           -8.11241452661252       -4.09497699234177       -0.08376376641236
C           -7.80088186980994       -2.77801704098163        0.16713464259907
C           -8.85056709376935       -1.87807197167403        0.18624951933997
C           -8.61710231088746       -0.53564998044502        0.45177475382136
C           -7.33089892891756       -0.10748126275374        0.71796132546057
C           -6.27503606241669       -1.00643405606089        0.69569031611687
C           -6.48653053412123       -2.34787193779085        0.39890614872274
C           -3.53406168428237       -1.99547153855036       -0.41127497634950
C           -2.23478750017761       -1.56100927626712       -0.25587222886514
C            0.40354510138149       -0.25755335682248        0.59756138949772
C           -0.41407860950452        0.93136916776248        0.39119123764065
C           -1.57751554251412        1.15236895508863        1.13062202352304
C           -2.34134003019485        2.27815582443881        0.90712829724416
C           -1.96518915542560        3.20390886584621       -0.06562000706170
N           -2.76258223882918        4.33979268893861       -0.31011485177754
C           -4.07340234751071        4.20245088447992       -0.77827338148741
C           -4.64088025077128        2.96332567302507       -1.05054787979576
C           -5.94259346862824        2.86161207262536       -1.51781104949936
C           -6.69713075346999        3.99754759241056       -1.73202005938033
C           -6.13539858343125        5.24429352753926       -1.49735725351691
C           -4.83666920533580        5.34959964392369       -1.03387449405317
O           -4.34173706302359        6.61991099478259       -0.86122665168455
C           -3.05027676215561        6.73893119823609       -0.40029027407869
C           -2.56908565577546        8.02179881828973       -0.21295904136726
C           -1.28877361888488        8.22448939473866        0.28150894847883
C           -0.50533714222162        7.13477428252210        0.60470503655301
C           -0.98302482589253        5.84662574698554        0.41614463594245
C           -2.24994228852482        5.62570705109004       -0.11084202554417
C           -0.79336040761208        2.99673908598609       -0.79162865739181
C           -0.02270188787920        1.87774570518881       -0.55769285723533
N            1.71146880646438       -0.15378056919927        0.44425124493918
C            4.47993386041324        0.03599697066009       -0.00933927218470
C            5.83443654508260        0.08920673559721       -0.26106843902314
H           10.42677947976146       -4.30438968780605       -3.40431033280307
H            7.97100280273233       -4.40601687572185       -3.08874551014374
H            6.85680748054263       -2.82990454596621       -1.58587683942915
H           11.73177625777422       -2.55994056987591       -2.20657048099995
H           12.07488158433321        1.04105871241224        0.57595566153825
H           11.11987575732936        2.70823506307279        2.15357291098672
H            8.70168178359778        2.61801501407771        2.68868729428210
H            7.27133749815289        0.93343802426932        1.64145437571765
H            6.74480802921396       -2.90978225791815        1.01753461934784
H            4.30901063791160       -3.00241715860724        1.45997671637341
H           -1.45572421489071       -3.18416742860625        2.58311027913303
H           -3.79412169427540       -3.94989862423969        2.31801742939510
H           -3.72696612417643       -5.31688134670772        0.11645775655314
H           -4.31473299521648       -7.66185435984353       -0.25597658988442
H           -6.69072358121204       -8.33166262015149       -0.47805020918770
H           -8.45803764815631       -6.58730336838720       -0.36180153194368
H           -9.85674623736820       -2.26044136863728        0.07076755708113
H           -9.44856551624589        0.15551795272317        0.49326056804085
H           -7.13482672596287        0.93619940687631        0.91043444466395
H           -5.27334660620169       -0.65413099739622        0.86048599931922
H           -4.11565276366672       -1.68055841200589       -1.28804166372373
H           -1.79319840697647       -0.91782333790580       -1.02293512310002
H           -1.87112245407749        0.44289804553384        1.87969274086906
H           -3.23560289769486        2.44660972375826        1.47594721678135
H           -4.05192161684590        2.07333281972140       -0.92534277488466
H           -6.35021748114952        1.89313467756126       -1.74146571105174
H           -7.70338091418557        3.93542736543584       -2.11246552885079
H           -6.68228119118941        6.16115834189200       -1.68076820024092
H           -3.21557387358527        8.85162944436446       -0.43507304977415
H           -0.92321966460001        9.22650618616377        0.45199482637637
H            0.48131479346280        7.26982464675237        1.03498631860262
H           -0.36741972510276        5.00167512110427        0.69741702351542
H           -0.49140296061520        3.72272785615922       -1.54161308440486
H            0.88573165985643        1.71200553735062       -1.12785863009639
H            3.83763199778182        0.85370037493778       -0.29998802328524
H            6.26938573151257        0.95250423788421       -0.74944856138830
