  90
 
 N        -10.9431201591       -1.9266670418       -0.4626041976
 C         -9.9422647770       -1.3771404356       -0.3292040514
 C         -8.7270141170       -0.7008024366       -0.1647009552
 N         -7.5792783996       -1.3284868343       -0.3287024851
 C         -6.4442539353       -0.7252518842       -0.1792993151
 C         -6.4428799715        0.7336512786        0.1905995907
 N         -7.5767445715        1.3371673124        0.3474457644
 C         -8.7256832145        0.7097034598        0.1912182944
 C         -9.9396355742        1.3860908070        0.3648139120
 N        -10.9394172352        1.9356558333        0.5059443780
 C         -5.0885919632        1.1446348691        0.2862985417
 C         -4.4491489448        2.3453371657        0.5794826329
 C         -3.0638095467        2.3770169060        0.5027284334
 C         -2.2778170702        1.2701209433        0.1805998882
 C         -0.8524051155        1.4780480574       -0.0886266186
 C         -0.3071611725        1.0601547290       -1.3046034713
 C          1.0102903192        1.3060632367       -1.6176308212
 C          1.8444594291        1.9627255971       -0.7088864944
 N          3.1890094492        2.1922221533       -1.0002168549
 C          3.8380138768        3.3092799279       -0.4504102141
 C          3.2050608112        4.5510798042       -0.4196838959
 C          3.8481866327        5.6433814910        0.1296217326
 C          5.1263276503        5.5159656827        0.6494705595
 C          5.7604552723        4.2843469952        0.6165952368
 C          5.1246628902        3.1851205875        0.0728697354
 C          3.9245233531        1.3171020745       -1.8062937701
 C          3.6786073376       -0.0558371292       -1.7923065734
 C          4.4270479371       -0.9066613192       -2.5815581580
 C          5.4341483831       -0.4095717654       -3.3922705128
 C          5.6806698718        0.9538049854       -3.4144157177
 C          4.9336283581        1.8134366491       -2.6336817315
 C          1.3005227024        2.3880641918        0.5073314682
 C         -0.0266020422        2.1628708264        0.8009889392
 C         -2.8990486389        0.0026868007       -0.0013999988
 C         -2.2798348294       -1.2655622089       -0.1846784939
 C         -0.8544968134       -1.4754273528        0.0833805177
 C         -0.0297651206       -2.1614851308       -0.8062384845
 C          1.2970350600       -2.3887008851       -0.5125145864
 C          1.8415398372       -1.9642477227        0.7037522185
 N          3.1856584002       -2.1957542735        0.9953977922
 C          3.9217171914       -1.3219697244        1.8024718844
 C          4.9286610632       -1.8200723204        2.6314003201
 C          5.6757861808       -0.9617509677        3.4135085623
 C          5.4315020489        0.4020236178        3.3911536187
 C          4.4266458549        0.9008900511        2.5787458543
 C          3.6781552841        0.0513817322        1.7881305981
 C          3.8332719302       -3.3139043223        0.4462945550
 C          3.1981619332       -4.5545836078        0.4146189618
 C          3.8401201069       -5.6479927686       -0.1338440452
 C          5.1192178560       -5.5228285335       -0.6518829361
 C          5.7554752965       -4.2923322962       -0.6180694986
 C          5.1208669473       -3.1920035184       -0.0751988163
 C          1.0083725335       -1.3062726081        1.6124656742
 C         -0.3086388555       -1.0583334565        1.2993729187
 C         -3.0679101478       -2.3715067915       -0.5049523387
 C         -4.4534535327       -2.3383478467       -0.5773762149
 C         -5.0907087214       -1.1370793437       -0.2817097904
 C         -4.2981140451        0.0034565399        0.0006452218
 H         -5.0116829850        3.2324637143        0.8238682871
 H         -2.5612037861        3.3220626280        0.6560918587
 H         -0.9415778000        0.5648259148       -2.0244970205
 H          1.4013653742        1.0047211020       -2.5778873424
 H          2.2125209800        4.6511407260       -0.8338406761
 H          3.3510831905        6.6017351120        0.1449407531
 H          5.6255795122        6.3719657421        1.0768005312
 H          6.7543180074        4.1757865663        1.0245257809
 H          5.6134843528        2.2219760979        0.0571854429
 H          2.8985956479       -0.4510809257       -1.1617253060
 H          4.2289981122       -1.9682839353       -2.5552607806
 H          6.0190834864       -1.0784715992       -4.0046009154
 H          6.4559734350        1.3530582075       -4.0512096803
 H          5.1222020650        2.8764446885       -2.6639995873
 H          1.9295764102        2.8931994401        1.2255940435
 H         -0.4245056608        2.4941733191        1.7489079601
 H         -0.4281655646       -2.4922453407       -1.7541407611
 H          1.9253559856       -2.8948045675       -1.2307426939
 H          5.1154006240       -2.8833991425        2.6619304186
 H          6.4493284067       -1.3623478291        4.0515971204
 H          6.0164198832        1.0698743295        4.0046441439
 H          4.2303756846        1.9628374593        2.5522454084
 H          2.8998502791        0.4479533172        1.1562773301
 H          2.2049106343       -4.6529568836        0.8274731975
 H          3.3413468868       -6.6054669081       -0.1498803918
 H          5.6175646102       -6.3797059109       -1.0785089656
 H          6.7501118492       -4.1855276924       -1.0245732889
 H          5.6113617676       -2.2297215623       -0.0588017129
 H          1.3998294541       -1.0055894094        2.5727692191
 H         -0.9423517062       -0.5620670336        2.0192381743
 H         -2.5667816596       -3.3171031593       -0.6597596784
 H         -5.0176957091       -3.2249013398       -0.8198964060
