92
 xtb: 6.7.1 (edcfbbe)
C           -8.77076461984335       -2.01197165862038       -0.02034633187719
C           -7.88017531780398       -0.75616591771029        0.00299434736890
C           -8.74996074222842        0.51420456011066        0.02462399706110
C           -7.02971735891105       -0.73969594979645       -1.25353035752703
C           -7.64553252236434       -0.71997075855608       -2.49736024177657
C           -6.92150055746870       -0.70491511013114       -3.67543724011028
C           -5.53958598841834       -0.70916814880052       -3.62028259527964
C           -4.90134703129846       -0.72807413479055       -2.39796933317971
C           -5.63184384749534       -0.74252274452753       -1.20624464247038
N           -4.96258070191996       -0.76403308318161        0.00656542467942
C           -3.54143518175959       -0.77995612193263        0.00764949060480
C           -2.85730620658325       -1.99618582493905        0.01909875587225
C           -1.48131273308495       -2.01907630754308        0.01982404437952
C           -0.72779667286455       -0.83828616463847        0.00933225968578
C            0.72784847799879       -0.83824321072406        0.00877956648572
C            1.48142923012686       -2.01899462063745        0.01630764327714
C            2.85742094572473       -1.99602694785692        0.01520494296034
C            3.54148185133757       -0.77975651303325        0.00651541308712
N            4.96262922421442       -0.76377703373970        0.00567440841140
C            5.63422783766891       -0.75835438826658        1.21631778065826
C            4.90594901003333       -0.75556553638704        2.40937839020554
C            5.54646405477800       -0.75298869661419        3.63046574852717
C            6.92848385116230       -0.75280595006972        3.68303258376347
C            7.65032423846187       -0.75398825127298        2.50365030950168
C            7.03218631760693       -0.75713994466530        1.26099631394256
C            7.88022361869683       -0.75619395010197        0.00292105254100
C            8.75021724866303        0.51403052062550       -0.00243113372955
C            8.77060759050787       -2.01214446235084        0.00682008744560
C            7.03017718906232       -0.76640252940910       -1.25375330560914
C            7.64634765537673       -0.77257334839996       -2.49736613720576
C            6.92265085834783       -0.78055771748985       -3.67558423195841
C            5.54071824363458       -0.78098096702955       -3.62082907649436
C            4.90213027986176       -0.77441729541113       -2.39873883632875
C            5.63228922345476       -0.76744122901467       -1.20684443310213
C            2.82617920661985        0.39943481263422       -0.00097848037728
C            1.43037107039671        0.38333523477704       -0.00002628706336
C            0.71328087344892        1.64029559041709       -0.00829207152701
N            1.39819664262917        2.76766421275825       -0.01545607377431
C            0.71382415378070        3.91960867347212       -0.02217174792875
C            1.40539445408428        5.15020814490457       -0.02843487077696
C            0.70420594907321        6.32135660454779       -0.03633674778571
C           -0.70459816849532        6.32130914460527       -0.03843528502508
C           -1.40570992627164        5.15011330281825       -0.03254001054036
C           -0.71405845845055        3.91956170218017       -0.02412981508806
N           -1.39835752599061        2.76757339097790       -0.01894516053006
C           -0.71337126936132        1.64025047390332       -0.00961152483553
C           -1.43038804892559        0.38324972084788       -0.00107572982427
C           -2.82619586372753        0.39927150369016       -0.00204991597095
C           -5.63457872973629       -0.78370481717863        1.21692368767911
C           -4.90664407138520       -0.80252279499302        2.41016667808922
C           -5.54751147155949       -0.82535667551366        3.63103420333817
C           -6.92954879703609       -0.82875665994992        3.68319584810146
C           -7.65104872431924       -0.80670969725702        2.50366400990759
C           -7.03255140013954       -0.78403308262240        1.26122308124222
H           -8.14970329668382       -2.90588432491549       -0.01047175397886
H           -9.40738847793537       -2.04166646870434        0.87413077797943
H           -9.40703052876558       -2.03226245326807       -0.88628780756037
H           -8.11358798109161        1.39724171712407        0.01247174308529
H           -9.38508893478769        0.55430096523101       -0.87321970019562
H           -9.38591702846587        0.54492050029946        0.88791823833107
H           -8.72551980900299       -0.74814266534050       -2.55710591470643
H           -7.43656594340083       -0.74525919750893       -4.62799502815427
H           -4.95811369677787       -0.74784514990651       -4.53208541537331
H           -3.82431463452160       -0.75405646488515       -2.36609338891338
H           -3.42020551748916       -2.91787245450765        0.00932262038520
H           -0.98889675387970       -2.97788536255211        0.00964307040020
H            0.98906800482901       -2.97782792973275        0.00773737824571
H            3.42037378625243       -2.91767636048090        0.00710308077388
H            3.82575807594228       -0.75841231056399        2.37059310003712
H            4.96082076786697       -0.75898458814298        4.53591877034706
H            7.43932708807375       -0.75868807551491        4.63037830462714
H            8.72707770010669       -0.75630666422660        2.55876105008548
H            9.38557314750118        0.54748599248774       -0.88257067507393
H            9.38598684449400        0.55114227061819        0.87856209405646
H            8.11400844456328        1.39716118361857       -0.00346588498427
H            9.40724415664274       -2.03544429775509        0.88354506924319
H            8.14938124431864       -2.90596626270733        0.00542853971209
H            9.40682355979757       -2.03907812576420       -0.87687448080648
H            8.72582753465169       -0.76689205560548       -2.55703247791010
H            7.43707013300648       -0.77782565693606       -4.62799595539146
H            4.95861049895508       -0.77774196702487       -4.53232901817537
H            3.82460140017652       -0.76824788004188       -2.36647500049190
H            3.33013338677088        1.35316926532408       -0.00272166273172
H            2.48408542639398        5.12836884875808       -0.00934677295569
H            1.22744868427730        7.26625350551604       -0.01437022423162
H           -1.22790674633349        7.26617289388391       -0.01565569957743
H           -2.48440342852541        5.12820327788592       -0.01186968440475
H           -3.33020613557633        1.35297498838426       -0.00369599758136
H           -3.82595198729662       -0.77342802136488        2.37098580149783
H           -4.96122628049576       -0.78958932396667        4.53617617976847
H           -7.43973969299062       -0.79149994338108        4.63039087040042
H           -8.72729118636851       -0.77495987603291        2.55869332931938
