  46
 
 C         -4.9538969523       -2.7142756617       -0.1482880659
 C         -3.6690518398       -3.2319505325        0.4902353216
 C         -2.5965739715       -2.1537761206        0.6488277753
 C         -2.0339468249       -1.6818067567       -0.6972350802
 N         -0.9689268404       -0.7279390749       -0.5156438968
 C          0.3517285262       -1.0359417825       -0.3381874209
 C          0.9893057445       -2.2747577816       -0.3369025511
 C          2.3497445908       -2.3079924304       -0.1421313887
 C          3.1089685053       -1.1337249582        0.0545759362
 C          4.5255189608       -1.1379798161        0.2594927213
 C          5.3932146398       -2.1884076683        0.3177681254
 C          6.7687296357       -1.9432623968        0.5354956088
 N          7.8855132315       -1.7460400636        0.7133117559
 C          5.1107579907       -3.5633459539        0.1918472293
 N          4.9695287347       -4.7005386237        0.1016141378
 C          2.4592588980        0.1106363200        0.0540383059
 C          1.0952482228        0.1578204036       -0.1383024475
 C          0.1398717744        1.2338475290       -0.1872683318
 C          0.2543578186        2.6014631334       -0.0569134664
 C         -0.8988817407        3.3922259564       -0.1479583179
 C         -0.8869976310        4.8176244646       -0.0243527987
 C          0.1683410425        5.6615242077        0.1640899117
 C         -0.0628474815        7.0527969241        0.2598092035
 N         -0.2547454837        8.1818983236        0.3381636278
 C          1.5337697000        5.3331446764        0.2775976212
 N          2.6638146143        5.1470814173        0.3771259675
 C         -2.1481710682        2.7663021502       -0.3699702656
 C         -2.2765288395        1.4050796409       -0.5038289306
 C         -1.1244839775        0.6260526695       -0.4145335329
 H         -4.7899961341       -2.4076745865       -1.1782502515
 H         -5.7106787309       -3.4954620421       -0.1493603865
 H         -5.3433481392       -1.8663962175        0.4114904368
 H         -3.2710834468       -4.0553067074       -0.1069428799
 H         -3.9036220710       -3.6277819849        1.4806240761
 H         -3.0146337104       -1.2988003825        1.1844508318
 H         -1.7749200465       -2.5523558928        1.2483511999
 H         -2.8169455338       -1.2101159844       -1.2926752789
 H         -1.6446971762       -2.5356931069       -1.2568203872
 H          0.4416535737       -3.1925449373       -0.4794591190
 H          2.8517392085       -3.2617775454       -0.1387602489
 H          4.9750194710       -0.1593565600        0.3880121589
 H          3.0227545378        1.0192794794        0.2047004806
 H          1.2182948538        3.0499963692        0.1166935266
 H         -1.8565912624        5.2986271029       -0.0912694481
 H         -3.0295608649        3.3867636231       -0.4348564946
 H         -3.2460005083        0.9628401779       -0.6684039702
