  111
 
 C          8.7111397258       -0.6493169571       -1.1924717839
 C          7.6889118940       -1.7270762502       -1.5669637873
 C          8.1872218675       -3.0698463489       -1.0116659776
 C          7.6093105830       -1.7953222800       -3.0995159618
 C          6.3037746738       -1.4401926733       -1.0036436544
 C          5.2628692040       -2.3383510305       -1.2736430478
 C          3.9786627292       -2.1664718782       -0.7963190694
 C          3.7199549779       -1.0585116386       -0.0048034549
 C          4.7421342202       -0.1243955068        0.2583982810
 C          6.0246107411       -0.3202018399       -0.2369257874
 C          4.1473539186        0.9229906938        1.0448098300
 C          4.6525458535        2.0812274712        1.6135863341
 C          3.8245855916        2.9100404910        2.3602008899
 C          4.4015032471        4.1836527461        2.9645553021
 C          5.5347503351        3.8107107109        3.9321615703
 C          3.3627178080        4.9992175975        3.7405492103
 C          4.9526487073        5.0689158551        1.8363958422
 C          2.4911103312        2.5311253099        2.5365006657
 C          1.9609826864        1.3796281736        1.9810232442
 C          2.7886523126        0.5795379666        1.2120883780
 N          2.5370355961       -0.6240087276        0.5719682994
 C          1.3134766933       -1.2901141878        0.5175214152
 C          1.2457290534       -2.6555452736        0.7761006260
 C          0.0280669323       -3.3249191726        0.6888667375
 C          0.0073591190       -4.7775855603        0.9771771166
 O          0.8433269523       -5.3087085052        1.6862870340
 C         -1.0857416425       -5.5776493288        0.3550891306
 C         -1.6822237421       -6.6070047711        1.0801350665
 C         -2.6756543041       -7.3556551254        0.4688741048
 N         -3.0740106018       -7.1549067071       -0.7762875956
 C         -2.4922842119       -6.1916207107       -1.4712188806
 C         -1.4989827219       -5.3703512144       -0.9597016087
 C         -1.1352341677       -2.6249536327        0.3806130394
 C         -1.0780665038       -1.2506545124        0.1607071956
 N         -2.2436447974       -0.5401070736       -0.1266551517
 C         -3.4458648424       -0.6444746242        0.5559215311
 C         -3.7845524685       -1.3920849497        1.6707735379
 C         -5.0698640811       -1.2801492891        2.1719721946
 C         -6.0299619912       -0.4370292355        1.6066147604
 C         -7.4449043827       -0.3205922629        2.1581745912
 C         -7.6901971547        1.1281984390        2.6063545855
 C         -8.4455804672       -0.6995035512        1.0559168303
 C         -7.6939066628       -1.2378139259        3.3594759565
 C         -5.6673532928        0.3312816059        0.5073167265
 C         -4.3878379894        0.2372392421       -0.0157076898
 C         -3.7199006374        0.9028793424       -1.1024108552
 C         -4.1314297552        1.8491512305       -2.0270956004
 C         -3.2492732788        2.3041578535       -2.9991742874
 C         -3.7204102589        3.3581959385       -3.9925562647
 C         -2.6316509372        3.7683009681       -4.9889877785
 C         -4.9107455513        2.8024115486       -4.7885730851
 C         -4.1531177895        4.6134338188       -3.2196443038
 C         -1.9605772252        1.7651689252       -3.0294605268
 C         -1.5241250718        0.8181962804       -2.1192090643
 C         -2.4020057263        0.3993304392       -1.1341102248
 C          0.1472570916       -0.5907744099        0.2157496946
 H          9.6803307299       -0.9072639599       -1.6150646180
 H          8.8249710597       -0.5758191837       -0.1132016281
 H          8.4197242909        0.3207958457       -1.5888813620
 H          7.5301942290       -3.8866500789       -1.2979686131
 H          8.2315443815       -3.0342476362        0.0753282719
 H          9.1839430689       -3.2856520581       -1.3911699311
 H          8.5985519006       -1.9693271807       -3.5179764014
 H          6.9559971954       -2.5988128018       -3.4284577678
 H          7.2251214014       -0.8582509479       -3.4981292486
 H          5.4583449107       -3.2075496656       -1.8831183656
 H          3.2047999190       -2.8769892431       -1.0463393183
 H          6.7806086808        0.4139591715       -0.0144371536
 H          5.6948285800        2.3203202170        1.4702420399
 H          5.9497311107        4.7079187256        4.3870066344
 H          6.3370643207        3.2866844355        3.4199995561
 H          5.1572610177        3.1654565103        4.7233072990
 H          2.5414946315        5.3030352915        3.0951696828
 H          2.9672013556        4.4333112321        4.5810342038
 H          3.8309433626        5.8995182535        4.1340612316
 H          5.3574221039        5.9913837149        2.2478339656
 H          4.1591485143        5.3223212122        1.1358290415
 H          5.7438178102        4.5661526431        1.2871111671
 H          1.8314084536        3.1431062448        3.1291006511
 H          0.9298879524        1.1167431503        2.1644170671
 H          2.1291620219       -3.2090569579        1.0544380226
 H         -1.3725650907       -6.8014739626        2.0954684175
 H         -3.1741325103       -8.1588191034        0.9955729752
 H         -2.8444111618       -6.0720645815       -2.4875415180
 H         -1.0464784450       -4.6045952284       -1.5702752632
 H         -2.0835489200       -3.1345008259        0.3190322444
 H         -3.0704476832       -2.0407563378        2.1562498506
 H         -5.3165908749       -1.8729595207        3.0372023039
 H         -8.6916565581        1.2280249328        3.0200463774
 H         -7.5946845443        1.8220806222        1.7756720869
 H         -6.9703788319        1.4123013383        3.3717672544
 H         -8.3609527385       -0.0381785796        0.1980122675
 H         -8.2663953752       -1.7189390810        0.7191295614
 H         -9.4632989448       -0.6352866276        1.4356220633
 H         -8.7205553460       -1.1164876615        3.6997816022
 H         -7.0350661760       -0.9872066850        4.1879478946
 H         -7.5508371030       -2.2823657081        3.0915693173
 H         -6.3684437115        1.0124910715        0.0507104802
 H         -5.1437794312        2.2191505363       -1.9787920901
 H         -3.0254093728        4.5285329940       -5.6609701314
 H         -2.3118923826        2.9218779765       -5.5927461567
 H         -1.7692440728        4.1885654199       -4.4761918872
 H         -4.6177213593        1.9012573570       -5.3240740773
 H         -5.7429783199        2.5542599627       -4.1356117221
 H         -5.2538226585        3.5383138006       -5.5130118704
 H         -3.3205550074        5.0002399987       -2.6348690084
 H         -4.4776450131        5.3873631546       -3.9123103320
 H         -4.9740743820        4.3987643553       -2.5410953979
 H         -1.2620744485        2.0832514439       -3.7855760565
 H         -0.5249925052        0.4163023827       -2.1963990941
 H          0.1925383767        0.4706641295        0.0304122019
