108
 xtb: 6.7.1 (edcfbbe)
O           -0.00306998476121        4.78319350828751        0.13799103509795
C           -0.00000201906352        3.56375823874065        0.07424056044602
C           -1.26569556428112        2.79025720535231        0.04740714890220
C           -1.36690344252331        1.51867104110211        0.61468680056109
C           -2.57749808181825        0.85246166627033        0.61170882629995
C           -3.69928425316234        1.44535266550775        0.03872273828144
N           -4.94454208353456        0.75673051181485        0.03661282015763
C           -5.22599444374395       -0.12239135593123       -0.99929754648729
C           -4.29243535074595       -0.33293210804252       -2.01780393710490
C           -4.56029561517913       -1.20555904719563       -3.05316687020456
C           -5.76581799089449       -1.88494721858865       -3.09990103591916
C           -6.69549148881585       -1.67643417668140       -2.09788039731873
C           -6.44358806931285       -0.80566837753036       -1.04872435104425
C           -7.51390388643934       -0.62835765970171        0.01376361942287
C           -8.73648940784019       -0.04640836152672       -0.67262000378121
C           -8.57178001285651        1.18818514972032       -1.29781983773817
C           -9.61110480668277        1.82189680361416       -1.94817885454169
C          -10.86209441801829        1.22490648163313       -1.98667546141246
C          -11.04852449718628        0.00282705169954       -1.37695119388626
C           -9.99302044171776       -0.63212995391384       -0.72427248474176
S          -10.38747124325447       -2.18964689993095        0.00040143811355
C           -8.86762304442843       -2.70899562133574        0.74144253694855
C           -8.91314820481886       -3.93778346539328        1.39818275486004
C           -7.79006010207557       -4.44442325374961        2.01602808574507
C           -6.60769563039878       -3.72095683823568        1.98010660727391
C           -6.57046302181650       -2.50531863152154        1.32768315674046
C           -7.69255516666547       -1.97299892922137        0.69564666437119
C           -7.09177588765924        0.36252459182529        1.08455181567627
C           -7.97515199316753        0.62843500591510        2.11964039150794
C           -7.65462288805309        1.51650821641990        3.12971593201886
C           -6.42296854078290        2.14869138670179        3.10591643624607
C           -5.53007321383853        1.89641440171977        2.08404384223049
C           -5.85120785534705        1.00433659136273        1.05719700199462
C           -3.60656133927054        2.71667284330063       -0.52247623538497
C           -2.39949717675364        3.38597263423773       -0.50806273245206
C            1.27013448661500        2.79668942744671        0.04225789986982
C            1.40394924319357        1.61945932382369       -0.69484338076694
C            2.61493295061517        0.95432366458363       -0.72552246475220
C            3.70184928504270        1.45001726299775       -0.01107307426952
N            4.94338247030128        0.75580101870265       -0.02980228973426
C            5.25338029573223       -0.09549081265321        1.02133654257443
C            4.33815195163459       -0.29733429705334        2.05817427846050
C            4.63306543211395       -1.14415907582098        3.10742570643205
C            5.84543943397172       -1.81166085758133        3.14677135217569
C            6.75125626262651       -1.62277240711672        2.11946449145488
C            6.47259026878319       -0.77665163274774        1.05697877744876
C            7.51365565963519       -0.62903343976487       -0.03852894497834
C            7.68247987155259       -1.99408594560755       -0.68090439797416
C            6.54944976109603       -2.54882932040073       -1.27290277601284
C            6.57761317916239       -3.78386487418397       -1.88822706738147
C            7.76152076327558       -4.50472258494829       -1.92631083143889
C            8.89507609419542       -3.97649037953396       -1.34690768068899
C            8.85864853578176       -2.72821053707655       -0.72756142606778
S           10.38815377568264       -2.18742909064742       -0.03883430988534
C           10.00649498063819       -0.60492846126755        0.65136482112634
C           11.07144275051782        0.04895360736168        1.26893734459450
C           10.89491171276112        1.29067633102908        1.84051063381920
C            9.64467143161573        1.88886505003312        1.79777356485324
C            8.59544102234764        1.23526847059229        1.18411028881274
C            8.74942885001700       -0.02037428974182        0.59961003151468
C            7.05818509929895        0.32457788371248       -1.12886335141677
C            7.91239630174568        0.55923990639623       -2.19546217142384
C            7.56767191220746        1.42430022396589       -3.21740948267248
C            6.34487333948191        2.07201356911859       -3.16854264821034
C            5.48122206541644        1.85121052457294       -2.11479766183212
C            5.82040480238087        0.97080549258131       -1.08370133485889
C            3.57682518411864        2.62963724876459        0.71759066521332
C            2.37205603530826        3.30337524002049        0.73168938643259
H           -0.52045831846582        1.10041940115620        1.12540827463849
H           -2.67664606728880       -0.09109195662162        1.11400558358129
H           -3.35931796969552        0.19774037741307       -2.00471260373822
H           -3.84160679590058       -1.33982329728189       -3.84277113632575
H           -6.00416886886154       -2.54914364044624       -3.91920995781650
H           -7.65506459055934       -2.18625263670194       -2.12786690458853
H           -7.60805933460215        1.66829222161944       -1.23851024465563
H           -9.46287455871924        2.79619151284117       -2.38086576111602
H          -11.69777138285180        1.72024026859440       -2.45497283829187
H          -12.01706556263741       -0.48104388502698       -1.37873926287593
H           -9.83783363431967       -4.49227604397334        1.40230420672491
H           -7.82543879619520       -5.40891813617013        2.50347170072022
H           -5.71011979491325       -4.11196559022589        2.44374250650277
H           -5.64552994795370       -1.94467568985750        1.29621220385455
H           -8.91983465221518        0.11585331005348        2.14682147024214
H           -8.33498046052824        1.69324866249282        3.94637966897532
H           -6.13365156274231        2.83218593866096        3.89653433362342
H           -4.56484137131701        2.39283352195819        2.07630713887434
H           -4.46828878438927        3.13800499167832       -1.03339664060874
H           -2.29955817758534        4.34292287767395       -1.01412936152132
H            0.55550543484999        1.20222059998263       -1.22889933835204
H            2.71292156634484        0.01086522038123       -1.25664254848184
H            3.38407540648794        0.21505338835154        2.03369848304512
H            3.89924909683816       -1.28590967231064        3.89238248211649
H            6.06990494774272       -2.48138857979553        3.96235046581767
H            7.69202826377861       -2.14698644543313        2.13958982447455
H            5.63036331229449       -1.98436148562557       -1.24708207765587
H            5.68688260170864       -4.17700415701965       -2.34603661241894
H            7.80725261515148       -5.46536704793696       -2.41124808234021
H            9.83284066313103       -4.51489299611909       -1.36384900461387
H           12.03346565908514       -0.44019036114697        1.30421234253983
H           11.72082061358900        1.78211520524470        2.33856113889919
H            9.48353039240598        2.85315489583946        2.26358959612160
H            7.61877597168124        1.69748895443412        1.16672805013324
H            8.87601059233324        0.06061666868336       -2.20607547321612
H            8.26102291479738        1.60396522446544       -4.02503287125641
H            6.06987382168437        2.76107842605080       -3.94836348634081
H            4.53725997307150        2.36602641574044       -2.08765956757867
H            4.43616313845547        3.04354561507250        1.20928544497232
H            2.27198673602531        4.25500018578991        1.21810666280960
