  73
 
 C         -5.6827656507       -4.6619756895        0.5224837606
 C         -4.2768257406       -4.9467702701       -0.0250794845
 C         -4.3740540626       -5.4292018549       -1.4796829676
 C         -3.6584401150       -6.0710833812        0.8101154068
 C         -3.4586403054       -3.6673130431        0.0181726646
 C         -2.2732372754       -3.5450614528        0.7369295546
 C         -1.5556454128       -2.3660117886        0.7527560234
 C         -2.0013575777       -1.2524663234        0.0403572636
 N         -1.2723600623       -0.0636330968        0.0431201422
 C          0.1135958251       -0.0964020792        0.0583231907
 C          0.8594110876        0.8920136110        0.7403751117
 C          2.2188095088        0.8743249253        0.7373096033
 C          2.9673830861       -0.1351456966        0.0504956771
 C          4.3739874768       -0.1520810693        0.0312231304
 C          5.0943212796       -1.3471948615       -0.2329301403
 C          6.4547595937       -1.4399683915       -0.1926464092
 N          7.1259652227       -2.6364101608       -0.4495922916
 C          7.2415339391       -0.2602369606        0.0670623168
 N          8.6224103974       -0.3559525908        0.0926695713
 C          6.5864751794        0.9215603274        0.3321542815
 C          5.1922863164        1.0274715135        0.3177977805
 C          4.6921150506        2.3169498388        0.4580458282
 N          4.3863320234        3.4297933805        0.5607197839
 C          2.1861704403       -1.1388607404       -0.6129161430
 C          0.8266792079       -1.1157320684       -0.6129488608
 C         -1.9399842125        1.1623836589        0.0309599297
 C         -3.1369268905        1.3334281302        0.7259358365
 C         -3.7857341185        2.5520690221        0.7190449264
 C         -3.2727019107        3.6465880945        0.0296324491
 C         -3.9516877245        5.0052679237        0.0037659471
 C         -5.2556082948        5.0290989461        0.8060033216
 C         -4.2781319967        5.3752223796       -1.4504058717
 C         -2.9998534723        6.0495817182        0.6043157622
 C         -2.0741979238        3.4626422509       -0.6609852770
 C         -1.4169081079        2.2526808334       -0.6675204203
 C         -3.1895097407       -1.3637946905       -0.6858224746
 C         -3.8950152375       -2.5463155791       -0.6893541044
 H         -6.2788772360       -5.5720335617        0.5150144557
 H         -5.6208108219       -4.2982914423        1.5461156070
 H         -6.1971361803       -3.9139391731       -0.0742687911
 H         -4.8648450213       -4.6928267879       -2.1098701403
 H         -3.3799294234       -5.6135666642       -1.8816873487
 H         -4.9439385188       -6.3545673722       -1.5300363644
 H         -3.5897810308       -5.7881724085        1.8579782572
 H         -2.6677639617       -6.3311452194        0.4445411992
 H         -4.2844563399       -6.9585678737        0.7426066941
 H         -1.8911025199       -4.3744420373        1.3091006816
 H         -0.6470223693       -2.2933147110        1.3322499932
 H          0.3297301494        1.6497408567        1.2996995740
 H          2.7489827713        1.6132574033        1.3139838007
 H          4.5365499854       -2.2561242052       -0.4047608430
 H          6.5140390515       -3.4399083138       -0.4741189969
 H          7.9329913684       -2.7934328565        0.1380963786
 H          9.0194983418       -1.0269192967       -0.5481902338
 H          9.1042602887        0.5307260801        0.1005326924
 H          7.1667217707        1.8140705376        0.5275285962
 H          2.6874508586       -1.8991631276       -1.1910587762
 H          0.2711391751       -1.8599405869       -1.1666925751
 H         -3.5500020928        0.5061633479        1.2848727129
 H         -4.7044478084        2.6361050398        1.2760757145
 H         -5.9757614331        4.3194364984        0.4049974338
 H         -5.6965823582        6.0222978176        0.7501909376
 H         -5.0749026932        4.8014779840        1.8539752126
 H         -3.3779783390        5.4391198962       -2.0550442136
 H         -4.9333020144        4.6265403287       -1.8913114401
 H         -4.7815793566        6.3389399794       -1.4870314308
 H         -2.0762566486        6.1175404838        0.0366780584
 H         -3.4722483251        7.0296223842        0.6059259705
 H         -2.7501122060        5.7848209920        1.6296244914
 H         -1.6388702372        4.2797173946       -1.2153685244
 H         -0.4971396691        2.1369148886       -1.2212721915
 H         -3.5449126051       -0.5177714225       -1.2558165925
 H         -4.8053753927       -2.5937994732       -1.2675323918
