  76
 
 C          0.8509802520       -6.1802120000        1.7694604018
 C          2.1018563654       -5.6273044916        1.4510480901
 C          2.2061445596       -4.3258519249        1.0404459628
 C          1.0543567922       -3.5248689620        0.9410314584
 C          1.0282819463       -2.1546624559        0.5499132973
 C          2.2567503129       -1.3729159189        0.3508815612
 C          2.3843792462       -0.5687904128       -0.7790824317
 C          3.5259053570        0.1778576054       -0.9841689254
 C          4.5591743542        0.1457011910       -0.0497619485
 N          5.7216295766        0.8960544741       -0.2564991521
 C          6.4887134042        0.8956630312       -1.4059623464
 C          6.3339063415        0.1592367299       -2.5714538712
 C          7.2751411887        0.3259058735       -3.5693716276
 C          8.3520803035        1.1960146198       -3.4159520755
 C          8.5239689721        1.9138381562       -2.2493148297
 C          7.5911752155        1.7630051103       -1.2318591597
 C          7.4708802204        2.3171692976        0.0878534436
 C          8.2249249596        3.2312488240        0.8117588346
 C          7.8064436031        3.5754975541        2.0814630630
 C          6.6440383860        3.0325711776        2.6241889324
 C          5.8773995738        2.1210706299        1.9235258816
 C          6.3068237097        1.7522757259        0.6569020573
 C          4.4235277850       -0.6349887462        1.0959269043
 C          3.2825564352       -1.3865339608        1.2929876867
 N         -0.1029445635       -1.5234480204        0.3533219038
 C         -1.2601440926       -2.1706106249        0.6009580374
 C         -2.4936573733       -1.4186603414        0.3754935685
 C         -2.4470179555       -0.1007331981       -0.0770307225
 C         -3.6113534465        0.6095042338       -0.2792417956
 C         -4.8469422056        0.0164176467       -0.0237967159
 N         -6.0290581911        0.7401362162       -0.2123866776
 C         -6.2890785465        2.0052758505        0.2794468165
 C         -5.5013505012        2.8240278849        1.0759293048
 C         -6.0214282843        4.0457831024        1.4583757242
 C         -7.2975117551        4.4477073826        1.0703111931
 C         -8.0959495431        3.6265006672        0.2997377229
 C         -7.5951111042        2.3937138484       -0.0971419102
 C         -8.1415120437        1.3055605001       -0.8588120548
 C         -9.3560994272        1.1058704557       -1.5014368690
 C         -9.5571425745       -0.0779647297       -2.1824820407
 C         -8.5591856907       -1.0481446972       -2.2414008584
 C         -7.3426089604       -0.8721996297       -1.6102337985
 C         -7.1446488092        0.3041303742       -0.9014109092
 C         -4.8970304887       -1.3023581393        0.4272429752
 C         -3.7318037370       -2.0120327839        0.6204051925
 N         -1.3547278468       -3.3994396994        1.0535001993
 C         -0.2182819259       -4.0996563991        1.2131271249
 C         -0.2911090574       -5.4398600719        1.6474334051
 H          0.7985533520       -7.2081077321        2.0976435845
 H          2.9863071809       -6.2424925832        1.5272106794
 H          3.1661334465       -3.9098718205        0.7720364811
 H          1.5760913785       -0.5409335917       -1.4936380520
 H          3.6187428434        0.8058294542       -1.8575233583
 H          5.5127752530       -0.5310757720       -2.6937751723
 H          7.1753313187       -0.2343222081       -4.4873731634
 H          9.0650181358        1.2998875783       -4.2202647836
 H          9.3672564689        2.5759876265       -2.1235650330
 H          9.1161513288        3.6648410792        0.3838444323
 H          8.3792939207        4.2830157280        2.6622037181
 H          6.3321888308        3.3338824902        3.6133692801
 H          4.9676018100        1.7215721008        2.3457388449
 H          5.2231083691       -0.6594501802        1.8211402054
 H          3.1763650770       -1.9712723174        2.1952109342
 H         -1.4854183007        0.3490162472       -0.2684498600
 H         -3.5761266674        1.6230790340       -0.6501602649
 H         -4.5190842320        2.5145535295        1.3993738125
 H         -5.4260634118        4.7021207697        2.0759454835
 H         -7.6667244846        5.4115261742        1.3879445441
 H         -9.0919119032        3.9293351121        0.0135863081
 H        -10.1222927996        1.8658041628       -1.4699592984
 H        -10.4956227634       -0.2548497602       -2.6865865729
 H         -8.7387776553       -1.9572696319       -2.7962552502
 H         -6.5692291143       -1.6222275424       -1.6786443846
 H         -5.8543907357       -1.7529020224        0.6428279682
 H         -3.7555806839       -3.0301114355        0.9754473850
 H         -1.2650356992       -5.8520664443        1.8588015089
