  63
 
 C          7.3442299649       -1.0689522423       -1.4206443027
 C          7.0841809968       -0.0275454350       -0.3314455750
 N          5.8405480446        0.6868742202       -0.5422209165
 C          5.9507863865        1.9249095617       -1.2896480607
 C          6.1765081853        3.1334533298       -0.3799574515
 C          4.6599914886        0.2164990908       -0.0995540592
 C          3.4693571162        0.9892414756       -0.1823913522
 C          2.2578023716        0.4935363297        0.1990766156
 C          2.1158926418       -0.8141054992        0.7107145643
 C          3.3176059981       -1.5260365260        0.9275058738
 C          4.5397115797       -1.0471217027        0.5091249729
 O          3.3242606397       -2.7424165777        1.5399774562
 C          2.2186617643       -3.2595678200        2.1503906279
 O          2.3767731657       -4.2805611798        2.7832983750
 C          0.9621028934       -2.5652879962        1.9256907872
 C         -0.2095211764       -3.0686628370        2.6133154011
 O         -0.2530068556       -3.9841943929        3.4035848255
 O         -1.3862346185       -2.3920171612        2.4020224963
 C         -1.5173612905       -1.4826916687        1.4044051344
 C         -2.8106412526       -1.0625892971        1.1109298567
 C         -3.0296001902       -0.1987584191        0.0490546646
 N         -4.3387720943        0.2423841754       -0.2785162927
 C         -5.2326725529       -0.6714577780       -0.8412428306
 C         -4.8684855087       -2.0092373082       -1.0058150803
 C         -5.7387843332       -2.9364614363       -1.5515089027
 C         -7.0072325799       -2.5572933026       -1.9487277277
 C         -7.3770903425       -1.2300829809       -1.8239396926
 C         -6.5004941746       -0.2959652642       -1.2954329161
 S         -7.0518381702        1.3883858589       -1.3166280796
 C         -5.8878976434        2.1455739333       -0.2163309235
 C         -6.2055978145        3.4127532189        0.2463092357
 C         -5.3406561428        4.0992023170        1.0798421955
 C         -4.1582381606        3.4938061869        1.4629367050
 C         -3.8480237738        2.2209724459        1.0178671436
 C         -4.6964018039        1.5205350815        0.1576154500
 C         -1.9526465762        0.2188483337       -0.7346309988
 C         -0.6713946860       -0.1758552496       -0.4240755692
 C         -0.4146338761       -0.9901281125        0.6876419313
 C          0.8994278265       -1.4390188052        1.1009869881
 H          8.2895503326       -1.5705742220       -1.2324424199
 H          6.5528930858       -1.8136382615       -1.4399306309
 H          7.3925256596       -0.5954360367       -2.3982504491
 H          7.0752958034       -0.5022868386        0.6516043949
 H          7.8931908145        0.7061137753       -0.3319175921
 H          5.0570790017        2.0682886003       -1.8992941329
 H          6.7976134068        1.8252664527       -1.9725407626
 H          7.0941683067        3.0156976395        0.1910456788
 H          5.3541946599        3.2518668887        0.3205788016
 H          6.2576040537        4.0354637052       -0.9803689356
 H          3.5117520111        2.0082106909       -0.5256349122
 H          1.3976283444        1.1413484465        0.1723634194
 H          5.3877719606       -1.6863040186        0.6806594933
 H         -3.6279971313       -1.4391029031        1.7058207832
 H         -3.8832704798       -2.3338201761       -0.7122622226
 H         -5.4141839635       -3.9600850036       -1.6614178308
 H         -7.6958730823       -3.2752016888       -2.3653858083
 H         -8.3496476261       -0.8948967331       -2.1520848265
 H         -7.1384700862        3.8559294741       -0.0682983717
 H         -5.5935082036        5.0895617931        1.4241788171
 H         -3.4704297892        4.0048813640        2.1191846185
 H         -2.9291305757        1.7606303698        1.3444894119
 H         -2.1378922386        0.8452559866       -1.5932288413
 H          0.1385182892        0.1018651287       -1.0764482513
