114

C     11.261719    0.412523    0.182948
C      9.755277    0.299555    0.107719
C      9.120622    0.038059   -1.129488
C      9.872540   -0.135084   -2.381681
C     10.030564    0.933942   -3.277037
C     10.743897    0.768713   -4.466263
C     11.304928   -0.468544   -4.776379
C     11.151781   -1.541202   -3.900197
C     10.438905   -1.375837   -2.710732
C      7.714601   -0.061486   -1.179143
C      6.911992    0.084343   -0.040895
N      5.467346   -0.003193   -0.118142
C      4.896016   -0.915329   -1.020908
O      5.514346   -1.737068   -1.697238
C      3.417626   -0.942464   -1.129477
C      2.825825   -1.799371   -2.068904
C      1.444059   -1.872078   -2.175112
C      0.647713   -1.091741   -1.339758
C      1.209230   -0.216072   -0.382523
C      0.415325    0.589980    0.482854
C     -1.055561    0.587643    0.443363
C     -1.795137   -0.204549    1.330962
C     -3.194036   -0.202253    1.295526
C     -3.895086    0.592599    0.372948
N     -5.338256    0.590578    0.333343
C     -6.058226    1.820207    0.106356
C     -7.180029    1.856630   -0.736424
C     -7.877695    3.050239   -0.957773
C     -7.480386    4.247455   -0.343875
C     -8.214302    5.502595   -0.578376
C     -9.606359    5.572767   -0.400813
C    -10.303341    6.763480   -0.624417
C     -9.619334    7.906042   -1.030918
C     -8.239895    7.859270   -1.213121
C     -7.544494    6.667917   -0.988078
C     -6.360456    4.209396    0.500319
C     -5.660433    3.017026    0.721896
C     -6.066046   -0.645574    0.517617
C     -7.248258   -0.675707    1.297205
C     -7.969418   -1.859598    1.497052
C     -7.504181   -3.024165    0.912291
C     -6.329771   -3.012629    0.131675
C     -5.611693   -1.840067   -0.071468
C     -6.031222   -4.417264   -0.397936
C     -6.065212   -4.446153   -1.930064
C     -4.686603   -4.927901    0.132419
C     -7.194744   -5.217449    0.192722
C     -7.471990   -6.571209    0.061814
C     -8.605505   -7.078545    0.699762
C     -9.441484   -6.238885    1.453216
C     -9.158512   -4.875763    1.582664
C     -8.033752   -4.370484    0.950349
C     -3.147280    1.387640   -0.511414
C     -1.748506    1.386869   -0.475700
C      1.047965    1.428918    1.412739
C      2.435371    1.489126    1.488378
C      3.223456    0.705031    0.636808
C      2.629005   -0.150096   -0.290984
C      4.698941    0.827930    0.714006
O      5.140348    1.693859    1.469286
C      7.564757    0.314578    1.176781
C      8.968778    0.410498    1.278691
C      9.555088    0.611820    2.614637
C     10.235252   -0.428803    3.266827
C     10.785208   -0.238239    4.536556
C     10.658235    0.994511    5.173321
C      9.980249    2.035932    4.543209
C      9.430638    1.845087    3.273301
H     11.578464    1.089838    0.982041
H     11.701211   -0.574516    0.356734
H     11.685921    0.832268   -0.734032
H      9.598921    1.905262   -3.044785
H     10.860691    1.605850   -5.149229
H     11.859562   -0.597476   -5.702048
H     11.584654   -2.508051   -4.142196
H     10.321139   -2.222101   -2.037205
H      7.258007   -0.232249   -2.153057
H      3.442497   -2.419103   -2.718412
H      0.985495   -2.537398   -2.902532
H     -0.432998   -1.178789   -1.445304
H     -1.286041   -0.830647    2.061069
H     -3.735903   -0.816714    2.011277
H     -7.510149    0.955264   -1.247779
H     -8.731641    3.038729   -1.632397
H    -10.160006    4.695271   -0.072651
H    -11.379741    6.796919   -0.478257
H    -10.160860    8.831889   -1.205717
H     -7.703055    8.748278   -1.533251
H     -6.468412    6.651222   -1.148197
H     -6.029844    5.112046    1.010488
H     -4.811071    3.027278    1.400904
H     -7.604181    0.235275    1.774500
H     -8.868578   -1.852498    2.103735
H     -4.720244   -1.847334   -0.690725
H     -5.276265   -3.817498   -2.358825
H     -7.022985   -4.080948   -2.320704
H     -5.922395   -5.463147   -2.313206
H     -4.499366   -5.960563   -0.183634
H     -3.854587   -4.314538   -0.232418
H     -4.650619   -4.909304    1.228628
H     -6.829956   -7.224263   -0.519922
H     -8.845227   -8.135773    0.613058
H    -10.319237   -6.655158    1.942168
H     -9.810716   -4.236587    2.167811
H     -3.650848    2.004873   -1.252145
H     -1.201482    2.014274   -1.176864
H      0.453770    2.051172    2.080783
H      2.898021    2.159060    2.211744
H      6.988416    0.386307    2.098328
H     10.336197   -1.398509    2.783888
H     11.309926   -1.053139    5.027852
H     11.085168    1.143039    6.161659
H      9.876156    2.997493    5.039024
H      8.901788    2.666738    2.793486
