  64
 
 C          1.5223713993       -4.2113714425       -1.6357319445
 C          0.7298212183       -3.9998122560       -0.3377151477
 C          1.5635555859       -4.4750385000        0.8614929074
 C         -0.5380612193       -4.8554773582       -0.4050350620
 C          0.4255984234       -2.5201321719       -0.1755531873
 C          1.4888342004       -1.6157557303       -0.0779669820
 C          1.2751533646       -0.2372595692        0.0076077499
 C         -0.0282723447        0.2976408948        0.0034178113
 C         -1.0906979857       -0.6358125998        0.0139265661
 C         -0.8613051171       -2.0098142664       -0.1339179758
 N         -2.3774519828       -0.1309485240        0.0877968340
 C         -3.5740317280       -0.7718681396        0.3395714336
 C         -3.8513167311       -2.0256394949        0.8744103991
 C         -5.1717281924       -2.3995392903        1.0308828359
 C         -6.2179152785       -1.5401434799        0.6854540481
 C         -5.9609774788       -0.2662849906        0.2210116262
 C         -4.6418762045        0.1360167780        0.0601729757
 C         -4.0405817082        1.3800486711       -0.3094784625
 C         -4.5378620685        2.6322197662       -0.6747113088
 C         -3.6139182301        3.6383548765       -0.9467261941
 C         -2.2515498424        3.4394817674       -0.8281432949
 C         -1.6978851373        2.2035209113       -0.4116995684
 C         -2.6501563979        1.1874942344       -0.2335698843
 B         -0.2463972579        1.8003600016       -0.1145118512
 C          1.0200432326        2.6524117941        0.0413761627
 C          1.0355583155        4.0515429996        0.1573082708
 C          2.1974532863        4.7716601805        0.3302261451
 C          3.4178880474        4.1092105306        0.4110745567
 C          3.4541552120        2.7308175185        0.3244354379
 C          2.2793616561        1.9948900984        0.1377023190
 N          2.3628895607        0.6134032334        0.0666126597
 C          3.6585073100        0.0224328268        0.1030652635
 C          4.1449646896       -0.5216957054        1.2861200022
 C          5.3983760121       -1.1062541743        1.3091183054
 C          6.1675965364       -1.1502163513        0.1574921507
 C          5.6819128024       -0.6073342411       -1.0209894712
 C          4.4292249030       -0.0213528208       -1.0526837371
 H          2.4687521369       -3.6772586985       -1.6136239118
 H          0.9488347264       -3.8539642577       -2.4884402611
 H          1.7318931959       -5.2692483773       -1.7791770007
 H          2.5123585225       -3.9482527030        0.9203259857
 H          1.7715850052       -5.5393318624        0.7746416674
 H          1.0202552856       -4.3043072547        1.7886828193
 H         -0.2630774782       -5.9033398514       -0.5064960444
 H         -1.1290966479       -4.7516488859        0.5021456058
 H         -1.1494499832       -4.5862178311       -1.2632190752
 H          2.4981953446       -1.9912271927       -0.1218861071
 H         -1.7052448006       -2.6594860249       -0.2770463363
 H         -3.0690254366       -2.6871941467        1.2116956826
 H         -5.4000847705       -3.3703123140        1.4448714015
 H         -7.2374634190       -1.8721411776        0.8143197992
 H         -6.7676336026        0.4150686974       -0.0043119353
 H         -5.5986994326        2.8090286416       -0.7571114805
 H         -3.9773686461        4.6103513627       -1.2518912379
 H         -1.5867768587        4.2555730220       -1.0636992603
 H          0.0935671088        4.5747994211        0.1294768062
 H          2.1639734994        5.8487594423        0.4111143005
 H          4.3346973747        4.6618108879        0.5508929538
 H          4.4054973165        2.2270292801        0.4086909519
 H          3.5352094739       -0.4824005893        2.1766123913
 H          5.7756948318       -1.5274345377        2.2288587392
 H          7.1453831067       -1.6069789576        0.1787549630
 H          6.2792162778       -0.6416253962       -1.9196587680
 H          4.0392514954        0.4054431225       -1.9646986008
