  106
 
 O          2.2302714042        3.8565375121       -0.5187400996
 C          1.1406646210        3.4311565294       -0.2331495940
 C          0.6928020757        2.0274418712       -0.0987401413
 C         -0.6908285369        2.0281499657        0.0975485544
 C         -1.4189457125        0.8505192579        0.1762653307
 N         -2.7981444416        0.8541201962        0.3354177415
 C         -3.5106622875        0.1039728509        1.2565199790
 C         -3.0535168595       -0.5743644478        2.3742721547
 C         -3.9829844914       -1.2543677762        3.1385947675
 C         -5.3370713501       -1.2328846112        2.8188030532
 C         -5.8033383297       -0.5018536056        1.7431073739
 C         -4.8867904383        0.1809349638        0.9567149744
 C         -5.0083175461        1.0351057776       -0.1935159409
 C         -6.0894206456        1.4622460617       -0.9510672098
 C         -5.8528766515        2.2754157705       -2.0419659608
 C         -4.5576661941        2.6465200322       -2.3904258183
 C         -3.4655825982        2.2287551903       -1.6529801784
 C         -3.7014929954        1.4379107605       -0.5406947260
 C         -0.6975668071       -0.3680772030        0.0764726905
 N         -1.3912087148       -1.5778438065        0.1395265023
 C         -1.2022188202       -2.5918533389        1.0649410409
 C         -0.2909066528       -2.6810481929        2.1046459643
 C         -0.3310655199       -3.8082255071        2.9035735831
 C         -1.2708078143       -4.8127063553        2.6941196720
 C         -2.2113015664       -4.7053820458        1.6884437684
 C         -2.1830482266       -3.5870902226        0.8678833181
 C         -3.0046907473       -3.1479796364       -0.2261107782
 C         -4.1071967927       -3.6897160963       -0.8710508886
 C         -4.6576101391       -2.9996919001       -1.9334801000
 C         -4.0993485726       -1.8052602540       -2.3783532059
 C         -2.9961852986       -1.2524114836       -1.7562748481
 C         -2.4810151574       -1.9095604394       -0.6501460392
 C          0.6972288743       -0.3687831848       -0.0765321602
 N          1.3897059069       -1.5792484553       -0.1389763212
 C          1.1997335997       -2.5935502344       -1.0638689349
 C          0.2883419892       -2.6823937679       -2.1035344725
 C          0.3274000212       -3.8100283388       -2.9018715855
 C          1.2661506252       -4.8153241820       -2.6918820163
 C          2.2067345750       -4.7084029509       -1.6862475360
 C          2.1795771180       -3.5896517336       -0.8662766097
 C          3.0016486668       -3.1507728294        0.2274877907
 C          4.1036198431       -3.6932537116        0.8727176515
 C          4.6546863050       -3.0032292416        1.9348081725
 C          4.0975652300       -1.8080406331        2.3790822916
 C          2.9949470658       -1.2544360309        1.7567086876
 C          2.4791638784       -1.9116352771        0.6508953031
 C          1.4197836871        0.8490710917       -0.1768982964
 N          2.7989858166        0.8512565855       -0.3360496290
 C          3.5107720407        0.0999582366       -1.2567809838
 C          3.0529684024       -0.5784780650       -2.3742039852
 C          3.9817710754       -1.2597813882       -3.1381777197
 C          5.3358763941       -1.2394710367       -2.8183885203
 C          5.8028540581       -0.5083726347       -1.7430470660
 C          4.8869722550        0.1757041391       -0.9569978897
 C          5.0093306022        1.0303037791        0.1928261902
 C          6.0908468700        1.4567244421        0.9501926723
 C          5.8550953884        2.2706361513        2.0407094186
 C          4.5602487367        2.6431820600        2.3889816476
 C          3.4677614781        2.2261573665        1.6517157289
 C          3.7029013926        1.4345657232        0.5397986712
 C         -1.1373455883        3.4323463760        0.2313727812
 O         -2.2265368809        3.8588825711        0.5168193816
 N          0.0020387117        4.2058001354       -0.0010071670
 C          0.0027383244        5.6218047246       -0.0010806144
 C         -1.0576322177        6.3130869545       -0.5736558416
 C         -1.0536749352        7.6959005539       -0.5646119598
 C          0.0039941208        8.3892123832       -0.0010050768
 C          1.0610534416        7.6949123424        0.5625276621
 C          1.0637553034        6.3120970879        0.5714978378
 H         -2.0104245034       -0.5684992585        2.6514629720
 H         -3.6484218472       -1.8082929280        4.0028693021
 H         -6.0330878159       -1.7803825347        3.4364229944
 H         -6.8579292365       -0.4563661560        1.5183655221
 H         -7.0920467702        1.1586193466       -0.6913295376
 H         -6.6805819151        2.6242301077       -2.6412742011
 H         -4.4009603110        3.2715142037       -3.2572361744
 H         -2.4641699710        2.5094843896       -1.9460342839
 H          0.4231357053       -1.8979911189        2.3058098943
 H          0.3796166122       -3.9040407725        3.7108124274
 H         -1.2709264289       -5.6784969922        3.3391284462
 H         -2.9589215241       -5.4699567778        1.5429007222
 H         -4.5202215635       -4.6327973419       -0.5476354640
 H         -5.5227636450       -3.3983702903       -2.4413893082
 H         -4.5312032382       -1.2987106553       -3.2283131087
 H         -2.5565443064       -0.3402092538       -2.1314575775
 H         -0.4249363348       -1.8987452569       -2.3051071927
 H         -0.3833828923       -3.9055780585       -3.7090530417
 H          1.2654147724       -5.6814577382       -3.3364288098
 H          2.9536095488       -5.4736301561       -1.5403057825
 H          4.5156922914       -4.6369287572        0.5498269760
 H          5.5194001575       -3.4025264528        2.4429779411
 H          4.5298883339       -1.3014880915        3.2288027398
 H          2.5562050868       -0.3416030001        2.1314057807
 H          2.0098857687       -0.5717156471       -2.6514119281
 H          3.6466731947       -1.8137821538       -4.0021970416
 H          6.0313586044       -1.7879545206       -3.4357359395
 H          6.8574861771       -0.4638242498       -1.5183099808
 H          7.0931732637        1.1519692781        0.6906187705
 H          6.6831364387        2.6188894002        2.6398806345
 H          4.4041497712        3.2687218410        3.2555078808
 H          2.4666239741        2.5080076079        1.9446334387
 H         -1.8816910895        5.7730395308       -1.0120185408
 H         -1.8802814406        8.2326247755       -1.0054097273
 H          0.0045202631        9.4688878742       -0.0010428494
 H          1.8882046661        8.2308632449        1.0032366452
 H          1.8873278345        5.7712787375        1.0098239595
