  70
 
 O         -3.6662016204       -5.0302056229       -1.8616604469
 C         -3.8267808606       -4.1091924878       -1.0729680679
 C         -5.1265117894       -3.8660075600       -0.4125430265
 C         -6.1937318042       -4.7137439168       -0.6994772010
 C         -7.4271680261       -4.5268488491       -0.1005797575
 C         -7.6104632356       -3.4847468743        0.7965109012
 C         -6.5593135736       -2.6346611985        1.0905052851
 C         -5.3119527444       -2.8119393804        0.4948265333
 C         -4.2204426494       -1.8824849531        0.8407035204
 O         -4.3763611861       -0.9573261281        1.6226961993
 C         -2.9174887692       -2.1304435300        0.1827084959
 C         -1.8576487671       -1.2876073157        0.4831618080
 C         -0.6072512436       -1.4642041420       -0.1091318880
 N          0.4432364258       -0.5963015026        0.1986230758
 C          0.1720197758        0.7569115834        0.4195927273
 C          0.8718757918        1.4805806298        1.3904486247
 C          0.5829180427        2.8110155975        1.6026386902
 C         -0.4060537906        3.4639997836        0.8656098353
 C         -1.1087404468        2.7424857931       -0.1104540292
 C         -0.8124340451        1.4046555799       -0.3258524941
 C         -2.1690032109        3.3683738961       -0.9326214204
 O         -2.7790305082        2.7349428656       -1.7802113500
 C         -2.4450923864        4.7921048983       -0.6652193960
 C         -3.4306701215        5.4366669205       -1.4104331488
 C         -3.7226904492        6.7712167056       -1.1923412648
 C         -3.0303841217        7.4811077068       -0.2221964567
 C         -2.0488797783        6.8532232562        0.5244113737
 C         -1.7438263881        5.5104240999        0.3150440982
 C         -0.6848599105        4.8846905300        1.1346055847
 O         -0.0734190229        5.5128719231        1.9875012024
 C          1.7527143054       -1.0711033192        0.2799298858
 C          2.0212674012       -2.3535838837        0.7714408019
 C          3.3195504991       -2.8080765240        0.8468892187
 C          4.3915096944       -2.0104911838        0.4429867595
 C          4.1274937249       -0.7231913927       -0.0477075329
 C          2.8191439017       -0.2689480724       -0.1270243878
 C          5.2130081108        0.1792289492       -0.4952934590
 O          4.9784473907        1.2985955223       -0.9234724925
 C          6.5854197837       -0.3500391564       -0.3887759009
 C          7.6490300971        0.4560138698       -0.7902750839
 C          8.9523675092       -0.0007880081       -0.7090819712
 C          9.2096706226       -1.2748819509       -0.2242971532
 C          8.1626166781       -2.0855104362        0.1776992439
 C          6.8457994184       -1.6381955419        0.1027063310
 C          5.7611298767       -2.5403438207        0.5434890466
 O          5.9896066721       -3.6651115174        0.9667362293
 C         -0.4304952013       -2.5154354390       -1.0149237700
 C         -1.4805096597       -3.3571827850       -1.3108954798
 C         -2.7351541443       -3.1847061617       -0.7242294323
 H         -6.0296588018       -5.5192819404       -1.4004133602
 H         -8.2441676909       -5.1930224010       -0.3327059265
 H         -8.5709672224       -3.3352066307        1.2658054841
 H         -6.6797537573       -1.8168109461        1.7859884364
 H         -2.0250550885       -0.4937551968        1.1964619415
 H          1.6303622789        0.9912316271        1.9820451938
 H          1.1112448959        3.3752918339        2.3566621341
 H         -1.3602663193        0.8791116625       -1.0945423318
 H         -3.9574804557        4.8645130788       -2.1601879258
 H         -4.4887436674        7.2569390309       -1.7774494144
 H         -3.2549991948        8.5224214875       -0.0479910863
 H         -1.4973337968        7.3876874700        1.2841438002
 H          1.2084693971       -2.9820447455        1.1015927030
 H          3.5358349126       -3.7932632358        1.2325674272
 H          2.6467679259        0.7206037503       -0.5245502271
 H          7.4257402355        1.4441956948       -1.1654188063
 H          9.7661154486        0.6351360411       -1.0229845422
 H         10.2248603977       -1.6360699302       -0.1596544219
 H          8.3411098444       -3.0807057953        0.5583278273
 H          0.5272974528       -2.6570788593       -1.4916869229
 H         -1.3556450617       -4.1656984523       -2.0158068430
