  95
 
 O         -7.2622727588        1.6675777167        2.1932601168
 C         -6.6414094615        1.1303231443        1.2899133189
 C         -5.1809112276        1.0492626904        1.2291931306
 C         -4.4342473178        1.6432744650        2.2353471789
 C         -3.0505480908        1.7018729017        2.1463821156
 C         -2.3779909267        1.1038230174        1.0943699759
 C         -0.9746499387        1.4393505621        0.8432745479
 C         -0.6342437339        1.9446605788       -0.4135694810
 C          0.6434651333        2.3735859807       -0.6847583238
 C          1.6472546556        2.2731071670        0.2833241678
 N          2.9488233545        2.6789848662        0.0121808344
 C          3.7457379229        3.1953025906        1.0523750797
 C          3.2142578556        4.1063428618        1.9635371881
 C          4.0031316965        4.6139479637        2.9785539292
 C          5.3289990959        4.2280394156        3.0952620447
 C          5.8619563344        3.3249235139        2.1895786598
 C          5.0781011726        2.8073653281        1.1756420182
 C          3.4697446993        2.6489479374       -1.2889141904
 C          3.1106279693        1.6409592988       -2.1846929696
 C          3.6431977897        1.6187040006       -3.4593084162
 C          4.5440384773        2.5904037388       -3.8637682403
 C          4.9045289542        3.5937627072       -2.9790196618
 C          4.3713892111        3.6294391110       -1.7046247663
 C          1.3081835083        1.7632413354        1.5409255009
 C          0.0143455604        1.3793990739        1.8215385438
 C         -3.1042495294        0.3134906153        0.1602539069
 C         -2.4651148935       -0.5370947416       -0.7858199634
 C         -1.0959847341       -1.0212738068       -0.5677612994
 C         -0.7744402363       -1.5579282794        0.6809967142
 C          0.4339823641       -2.1794121040        0.8976374340
 C          1.3755472726       -2.2801610997       -0.1297446193
 N          2.5709176043       -2.9665098342        0.0755119539
 C          2.5996033085       -4.1165825693        0.8760298372
 C          1.5326979332       -5.0152247359        0.8737339643
 C          1.5745863151       -6.1469877241        1.6651765198
 C          2.6787226446       -6.4079249450        2.4608335354
 C          3.7448787765       -5.5229429536        2.4600425157
 C          3.7085717492       -4.3839913151        1.6786310115
 C          3.7519374031       -2.5425301671       -0.5534605837
 C          4.6137338760       -3.4701457236       -1.1373051214
 C          5.7784465588       -3.0464432770       -1.7481765924
 C          6.0965584914       -1.6982529436       -1.7910439569
 C          5.2436274931       -0.7744967764       -1.2099191572
 C          4.0806592491       -1.1891939758       -0.5894458246
 C          1.0760516710       -1.7043038381       -1.3668469977
 C         -0.1463896292       -1.1015653377       -1.5837848483
 C         -3.2097624192       -1.0721829558       -1.8235497907
 C         -4.5841870828       -0.8868444941       -1.8992981170
 C         -5.2509266920       -0.2231019031       -0.8824397554
 C         -4.5205376095        0.3797803939        0.1701010698
 C         -6.6779926649       -0.1175870593       -0.8450229087
 N         -7.5261334040       -0.5790760647       -1.7195189034
 C         -8.7729036438       -0.2384041524       -1.2544155382
 C        -10.0250359771       -0.4879565887       -1.8023812007
 C        -11.1288898795       -0.0282060332       -1.1111748959
 C        -11.0026008958        0.6626958856        0.0932863410
 C         -9.7645541489        0.9222078714        0.6552998720
 C         -8.6572935136        0.4636540359       -0.0325136697
 N         -7.2941271026        0.5377935536        0.2207292302
 H         -4.9584180154        2.1201629860        3.0507102179
 H         -2.4932852400        2.2727483375        2.8738480382
 H         -1.3984954009        2.0366964851       -1.1713704764
 H          0.8706299405        2.8047465879       -1.6478710089
 H          2.1833654351        4.4149300892        1.8665023308
 H          3.5815618540        5.3221219481        3.6769518839
 H          5.9434021334        4.6298460888        3.8869761767
 H          6.8932784932        3.0157119761        2.2763870012
 H          5.4933146254        2.1008576513        0.4726034998
 H          2.4184651207        0.8723972250       -1.8765185130
 H          3.3595024230        0.8282510249       -4.1385569312
 H          4.9607676556        2.5667474036       -4.8594321081
 H          5.6008315876        4.3612683917       -3.2844199843
 H          4.6497427567        4.4211198632       -1.0244897105
 H          2.0706302881        1.6719461317        2.3002844192
 H         -0.2249483844        0.9875738876        2.7988980493
 H         -1.4986389899       -1.5102623298        1.4811489642
 H          0.6558247710       -2.6062453654        1.8645161990
 H          0.6745535259       -4.8222364911        0.2464795210
 H          0.7422417394       -6.8356680552        1.6525860199
 H          2.7084530452       -7.2952618258        3.0751977988
 H          4.6093411011       -5.7166169280        3.0784456332
 H          4.5383064392       -3.6922937169        1.6855242399
 H          4.3618130180       -4.5203756870       -1.1089612274
 H          6.4375717967       -3.7730449222       -2.2005616094
 H          7.0048592901       -1.3692858044       -2.2731369863
 H          5.4867169378        0.2769262411       -1.2412616050
 H          3.4207638752       -0.4739388247       -0.1216609023
 H          1.7996541459       -1.7639200709       -2.1669058919
 H         -0.3677057660       -0.6808418027       -2.5536233276
 H         -2.7182449905       -1.6939265694       -2.5567240344
 H         -5.1616717689       -1.3108745713       -2.7055233949
 H        -10.1174588268       -1.0226406927       -2.7342718374
 H        -12.1163126231       -0.2066291705       -1.5104915606
 H        -11.8918943244        1.0042527639        0.6014483425
 H         -9.6594242578        1.4558578221        1.5866263102
