  52
 
 C         -4.9810648434       -2.7228829975        0.0077515789
 C         -3.7332486439       -1.8981186052        0.0053915826
 C         -2.7041639613       -2.1712310459        0.9076741414
 C         -1.5636023681       -1.3999111734        0.9616657389
 C         -0.5150680741       -1.7055601136        1.9842479284
 C         -1.3684486285       -0.3303394261        0.0362757085
 B         -0.0011900313        0.3988636165       -0.0019420817
 C         -0.0051378349        1.9569087023        0.0042864696
 C         -1.0568534356        2.6821193119        0.5952781183
 C         -1.0579338941        4.0603875228        0.5989357173
 C         -0.0177844777        4.7722706954        0.0144317889
 C          1.0288350963        4.0739552398       -0.5749823789
 C          1.0404679978        2.6957428396       -0.5802037017
 C          1.3748997503       -0.3156736151       -0.0462767843
 C          2.4386128621       -0.0211858017        0.8496843757
 C          2.3264502861        1.0941688616        1.8427371246
 C          3.5727474384       -0.8070371421        0.8628725142
 C          3.7438575850       -1.8744533447       -0.0193774470
 C          4.9867047925       -2.7061376027        0.0032510587
 C          2.7210464985       -2.1435701642       -0.9280401447
 C          1.5782558785       -1.3739835023       -0.9819343973
 C          0.5375451355       -1.6712691319       -2.0146194785
 C         -2.4370156144       -0.0352585088       -0.8545058011
 C         -2.3327793346        1.0880885221       -1.8391598407
 C         -3.5695362554       -0.8243011611       -0.8687958974
 H         -4.7427507255       -3.7699795790       -0.1819979439
 H         -5.6788426225       -2.3799571741       -0.7523633488
 H         -5.4711666401       -2.6697452181        0.9805806137
 H         -2.8224183660       -2.9936977386        1.6008585461
 H          0.3881296158       -2.0789568011        1.5006873481
 H         -0.2390006168       -0.8035423224        2.5280174763
 H         -0.8661047820       -2.4550861032        2.6901495618
 H         -1.8668842962        2.1504736091        1.0744208983
 H         -1.8759832447        4.5908258605        1.0695842170
 H         -0.0224951394        5.8528582208        0.0184781341
 H          1.8419419744        4.6151705218       -1.0418588692
 H          1.8555779367        2.1749109488       -1.0626064244
 H          2.6009259555        2.0457713999        1.3862909611
 H          2.9852564221        0.9209104548        2.6914152235
 H          1.3008731405        1.1929572942        2.1928523032
 H          4.3561332298       -0.5897306949        1.5770409394
 H          5.8102359479       -2.1665467057        0.4656358879
 H          4.8124248388       -3.6171720074        0.5795378518
 H          5.2751763830       -3.0018969348       -1.0040459645
 H          2.8442126327       -2.9592639128       -1.6283580914
 H         -0.3680640000       -2.0517882337       -1.5410555703
 H          0.8948969749       -2.4124139476       -2.7261556580
 H          0.2627615399       -0.7641304536       -2.5505707237
 H         -2.9938014376        0.9188908483       -2.6869502013
 H         -1.3087837499        1.1942690073       -2.1917480560
 H         -2.6097071380        2.0349538967       -1.3742443053
 H         -4.3562240437       -0.6027462818       -1.5780624371
