106

C     -6.860568   -0.973441    4.651839
C     -7.694115   -1.220888    3.562694
C     -7.284424   -0.868803    2.274235
C     -6.037935   -0.260418    2.056909
C     -5.598043    0.101065    0.704029
C     -5.356649    1.439662    0.356239
C     -4.900646    1.797580   -0.922747
C     -4.607686    3.197515   -1.256455
C     -3.616738    3.907229   -0.558727
C     -3.326192    5.235743   -0.877060
C     -4.022402    5.874884   -1.900155
C     -5.006422    5.185813   -2.606109
C     -5.295682    3.856583   -2.287156
C     -4.686237    0.778299   -1.862563
C     -4.887662   -0.572271   -1.538600
C     -4.523839   -1.632553   -2.494060
C     -5.354034   -1.874320   -3.603111
C     -5.039879   -2.866226   -4.533230
C     -3.889596   -3.632228   -4.371937
C     -3.049494   -3.407074   -3.281092
C     -3.345074   -2.410674   -2.332342
C     -2.424599   -2.207907   -1.189424
C     -2.513449   -3.099183   -0.107243
C     -1.742571   -2.917303    1.036889
C     -0.862659   -1.836043    1.133583
C     -0.112060   -1.640044    2.294208
C      0.762764   -0.558865    2.401082
C      0.929595    0.366513    1.351096
C      1.826024    1.470445    1.427699
C      2.679315    1.725682    2.608144
C      2.151363    2.465784    3.683209
C      2.922965    2.747372    4.810399
C      4.237408    2.297659    4.880724
C      4.781103    1.564868    3.824802
C      4.019527    1.266492    2.680184
C      4.636882    0.490302    1.593198
C      5.486303    1.109832    0.664060
C      6.046850    0.397478   -0.408203
C      6.924202    1.065104   -1.382381
C      8.219155    0.585289   -1.636947
C      9.052811    1.219997   -2.561845
C      8.603046    2.344759   -3.249773
C      7.321469    2.834917   -3.013743
C      6.489957    2.200456   -2.086993
C      5.735882   -0.967099   -0.533152
C      4.896285   -1.620420    0.383217
C      4.555009   -3.038813    0.218300
C      3.838268   -3.475709   -0.907118
C      3.502159   -4.822194   -1.065023
C      3.878624   -5.752567   -0.098450
C      4.589083   -5.337399    1.025662
C      4.922829   -3.989736    1.183740
C      4.366252   -0.877927    1.447431
C      1.926405    2.352832    0.339724
C      1.176085    2.154933   -0.814938
C      0.302526    1.068981   -0.913253
C     -0.438106    0.866454   -2.078316
C     -1.316133   -0.211785   -2.182497
C     -1.501904   -1.124129   -1.124548
C     -0.732195   -0.931874    0.054249
C      0.168317    0.167315    0.168047
C     -5.367826   -0.891043   -0.259944
C     -5.211231   -0.019014    3.166270
C     -5.618633   -0.373130    4.454434
H     -7.177292   -1.249876    5.653918
H     -8.663672   -1.688749    3.714487
H     -7.948158   -1.065978    1.434631
H     -5.527008    2.219430    1.097689
H     -3.052465    3.416719    0.232492
H     -2.553901    5.766448   -0.327081
H     -3.797455    6.908603   -2.148279
H     -5.551156    5.681760   -3.405185
H     -6.070853    3.334781   -2.844333
H     -4.297124    1.035845   -2.846481
H     -6.259473   -1.286172   -3.741323
H     -5.694968   -3.040145   -5.382869
H     -3.643693   -4.405400   -5.095671
H     -2.150487   -4.010810   -3.169792
H     -3.213842   -3.931374   -0.144051
H     -1.851110   -3.619957    1.859750
H     -0.198727   -2.327097    3.133025
H      1.325344   -0.452776    3.326377
H      1.125048    2.826403    3.638652
H      2.497297    3.319495    5.630782
H      4.842387    2.517067    5.756477
H      5.811348    1.219941    3.895085
H      5.708395    2.170293    0.775646
H      8.592425   -0.287289   -1.104166
H     10.053109    0.835888   -2.742116
H      9.251037    2.837101   -3.970418
H      6.965256    3.709157   -3.552136
H      5.487469    2.591081   -1.925682
H      6.147313   -1.532591   -1.368539
H      3.523900   -2.758519   -1.664099
H      2.942794   -5.140244   -1.941051
H      3.617097   -6.800013   -0.221801
H      4.885384   -6.060789    1.780194
H      5.481154   -3.682142    2.065465
H      3.702243   -1.368039    2.157566
H      2.608872    3.199110    0.388265
H      1.286526    2.854457   -1.640144
H     -0.344713    1.546976   -2.921585
H     -1.867501   -0.326430   -3.113367
H     -5.518919   -1.936613    0.005532
H     -4.232201    0.437293    3.026036
H     -4.963456   -0.183602    5.300938
