  35
 
 O         -2.7212383798       -2.8245670577       -0.0378294456
 C         -2.5255482005       -1.6238559585       -0.0211050317
 C         -3.6305332728       -0.6430507526       -0.0097779117
 C         -4.9399516869       -1.1213310298       -0.0111860221
 C         -6.0133587865       -0.2484453738        0.0011009213
 C         -5.7909364481        1.1207984056        0.0147394347
 C         -4.4964677039        1.6095670705        0.0151146261
 C         -3.4057799924        0.7423337234        0.0028788570
 C         -2.0462413527        1.3230969689        0.0020621865
 O         -1.8530886618        2.5262169475        0.0065277086
 C         -0.9325305698        0.3472122370       -0.0040516162
 N          0.2976341416        0.8408090698       -0.0032153006
 C          1.3214041329       -0.0055209971       -0.0023275279
 C          1.1001767581       -1.4154521458        0.0026503591
 C          2.1961270612       -2.3004343379        0.0143124453
 C          3.4815890639       -1.8285982304        0.0175473455
 O          4.4741302991       -2.7322963444        0.0304831253
 C          3.7508778738       -0.4092692628        0.0061739349
 C          5.0540040144        0.1152803340        0.0039714040
 C          5.2699608263        1.4738030587       -0.0081934937
 C          4.1944630135        2.3617199876       -0.0178770778
 C          2.9079114677        1.8786090696       -0.0154629042
 C          2.6658839249        0.4986424962       -0.0039113912
 N         -0.1474949592       -1.9031683325       -0.0046245538
 C         -1.1536041163       -1.0487503924       -0.0096824114
 H         -5.0887366523       -2.1911748235       -0.0217626821
 H         -7.0208072771       -0.6354314585        0.0001086252
 H         -6.6239872939        1.8068418478        0.0247134538
 H         -4.2991534291        2.6715486085        0.0247827422
 H          2.0081370685       -3.3617641737        0.0205501642
 H          5.3424786844       -2.3037124881        0.0325175702
 H          5.9151229665       -0.5389563306        0.0110404192
 H          6.2798394077        1.8551332660       -0.0102842786
 H          4.3751109184        3.4255406881       -0.0273623764
 H          2.0546061604        2.5386277107       -0.0226212981
