48

N     -6.307788    0.000372   -3.457541
C     -5.725367    0.000246   -2.454385
C     -5.010239    0.000102   -1.211798
C     -5.709143    0.000003   -0.000022
C     -5.010266   -0.000120    1.211767
C     -5.725424   -0.000230    2.454337
N     -6.307878   -0.000322    3.457474
C     -3.610789   -0.000135    1.209382
C     -2.895684   -0.000036    0.000008
C     -1.413143   -0.000023    0.000019
C     -0.707931   -1.243169    0.000018
C     -1.374338   -2.498292    0.000024
C     -0.690252   -3.712835    0.000049
C      0.690329   -3.712816    0.000055
C      1.374386   -2.498256    0.000053
C      0.707952   -1.243152    0.000023
C      1.413137    0.000009   -0.000001
C      2.895680    0.000018   -0.000000
C      3.610773    0.000184    1.209382
C      5.010252    0.000200    1.211784
C      5.725400    0.000394    2.454360
N      6.307857    0.000551    3.457494
C      5.709141    0.000030   -0.000001
C      5.010251   -0.000159   -1.211784
C      5.725400   -0.000348   -2.454361
N      6.307851   -0.000483   -3.457500
C      3.610772   -0.000158   -1.209383
C      0.707926    1.243154   -0.000016
C      1.374335    2.498273   -0.000064
C      0.690251    3.712819   -0.000057
C     -0.690331    3.712805   -0.000016
C     -1.374392    2.498247    0.000026
C     -0.707959    1.243140    0.000014
C     -3.610762    0.000071   -1.209381
H     -6.799469    0.000019   -0.000032
H     -3.065429   -0.000224    2.153967
H     -2.461296   -2.551756    0.000025
H     -1.239879   -4.650477    0.000081
H      1.239980   -4.650443    0.000062
H      2.461346   -2.551696    0.000084
H      3.065406    0.000304    2.153963
H      6.799468    0.000043    0.000000
H      3.065406   -0.000309   -2.153964
H      2.461295    2.551732   -0.000117
H      1.239886    4.650457   -0.000087
H     -1.239983    4.650432   -0.000035
H     -2.461352    2.551691    0.000047
H     -3.065385    0.000147   -2.153957
