  97
 
 C         -6.2149552257        5.3747424952       -0.4115182101
 C         -5.0069367247        5.0352002523       -1.2768377757
 C         -3.8056721517        5.9481034536       -1.0261305400
 C         -3.1811923942        5.7380751830        0.3516371817
 C         -1.9375776916        6.5973923471        0.5904798041
 C         -0.7622792737        6.3277158786       -0.3554223100
 C         -0.3730461708        4.8567410387       -0.4895236717
 C          0.0478505578        4.2300037021        0.8400212123
 N          0.2789661674        2.8107312490        0.6874776041
 C         -0.7609235391        1.8976712984        0.6232333879
 O         -1.9268560250        2.2083268235        0.7225479265
 C         -0.1167639543        0.5913506737        0.4323907683
 C         -0.4976887788       -0.7207262091        0.2870392466
 C         -1.7910074825       -1.3597509432        0.2619744484
 C         -2.9698634373       -0.6385507843        0.4835172038
 C         -4.1939352886       -1.2699810920        0.4591561960
 C         -4.2841968707       -2.6383714948        0.2061173396
 N         -5.5253033598       -3.2735500360        0.1745111547
 C         -5.8461723650       -4.4590961273        0.8115920778
 C         -5.0780858602       -5.2457441901        1.6577180197
 C         -5.6615925648       -6.3784875699        2.1932264356
 C         -6.9807176092       -6.7219814114        1.9080187655
 C         -7.7594595595       -5.9268283636        1.0909525281
 C         -7.1946387620       -4.7840590989        0.5411197002
 C         -7.7049845545       -3.7425989101       -0.3069129241
 C         -8.9362312354       -3.5237716275       -0.9100089651
 C         -9.0928298882       -2.4072483579       -1.7068415490
 C         -8.0352991064       -1.5263044140       -1.9191838968
 C         -6.8006462318       -1.7238993463       -1.3301974171
 C         -6.6459957543       -2.8282281069       -0.5048568889
 C         -3.1137358727       -3.3641715021       -0.0195127231
 C         -1.8911185762       -2.7339289054        0.0123154177
 S          0.9415277052       -1.7025190066        0.1057193409
 C          2.0367662457       -0.3398918930        0.2229849332
 C          3.4578012914       -0.5750196773        0.1386254570
 C          4.3782604432        0.4791986730        0.1559550425
 C          5.7306456905        0.2308518358        0.0707678074
 C          6.2100941009       -1.0749072395       -0.0279122199
 N          7.5800680290       -1.3236522753       -0.1083794411
 C          8.1995516201       -2.1637032869       -1.0165336061
 C          7.6548475079       -2.8883272774       -2.0667256551
 C          8.5148101964       -3.6319083766       -2.8527912523
 C          9.8866433715       -3.6510563544       -2.6137274784
 C         10.4380311643       -2.9084667491       -1.5886208861
 C          9.5936772785       -2.1541573194       -0.7852574215
 C          9.8191236204       -1.2680932923        0.3230400593
 C         10.9589497757       -0.8755656918        1.0117429509
 C         10.8217967573       -0.0071590697        2.0762417288
 C          9.5666775092        0.4534743572        2.4663025627
 C          8.4181228053        0.0764198384        1.7962840123
 C          8.5527793730       -0.7728927907        0.7076439056
 C          5.2990776853       -2.1319488018       -0.0419478025
 C          3.9483166294       -1.8826281630        0.0367329914
 C          1.2955078164        0.8048420528        0.3897912017
 C          1.5373228442        2.2468571221        0.5479168055
 O          2.5630621686        2.8875253008        0.5694144217
 H         -6.4976466283        6.4171903721       -0.5442178470
 H         -6.0014516839        5.2061293072        0.6405078817
 H         -7.0635053618        4.7522911413       -0.6873322781
 H         -4.7108395616        3.9996261068       -1.0944635711
 H         -5.2943180143        5.1176250938       -2.3283639965
 H         -4.1142830380        6.9914771566       -1.1311335418
 H         -3.0585260676        5.7457251835       -1.7958620541
 H         -2.9394048776        4.6820122873        0.4791692086
 H         -3.9135036500        5.9978021000        1.1186351234
 H         -1.6089127040        6.4505010916        1.6218365794
 H         -2.2122116285        7.6508472794        0.4904399105
 H         -1.0069820909        6.7046496011       -1.3502207101
 H          0.1018994694        6.8936116902        0.0014366350
 H         -1.2133003697        4.2891130030       -0.8915893285
 H          0.4571152524        4.7705970196       -1.1953587780
 H         -0.7416263235        4.3533090249        1.5841488149
 H          0.9758114374        4.6763238334        1.2037745755
 H         -2.9236477185        0.4188565343        0.6832909880
 H         -5.0921874989       -0.7062683250        0.6592960691
 H         -4.0619594353       -4.9787867414        1.9055704439
 H         -5.0820209960       -7.0086215611        2.8515862428
 H         -7.3992334974       -7.6169757642        2.3435628566
 H         -8.7882969198       -6.1807827510        0.8854158506
 H         -9.7490837349       -4.2180168151       -0.7598602069
 H        -10.0430665999       -2.2160419781       -2.1826261321
 H         -8.1810860935       -0.6707309578       -2.5618150427
 H         -5.9838396201       -1.0446144813       -1.5204344035
 H         -3.1747013505       -4.4185469538       -0.2421441497
 H         -0.9943663434       -3.3077076808       -0.1725880203
 H          4.0300660647        1.4959403864        0.2286766475
 H          6.4273624942        1.0549542861        0.0583153265
 H          6.5963818930       -2.8641804044       -2.2771579032
 H          8.1134537954       -4.2073405641       -3.6738993058
 H         10.5249277435       -4.2471835864       -3.2486372958
 H         11.5034020034       -2.9063906756       -1.4147575773
 H         11.9290259940       -1.2486783841        0.7201560236
 H         11.6955126998        0.3135971726        2.6236226256
 H          9.4876156689        1.1176781432        3.3141356109
 H          7.4497674718        0.4245257405        2.1218233025
 H          5.6613378214       -3.1475036955       -0.0915726502
 H          3.2557439532       -2.7120630546        0.0332660715
