113

C      0.148306    2.279699    4.716893
C      0.490954    1.407333    3.547382
C      1.530714    0.488373    3.618595
C      1.826715   -0.323997    2.520369
C      1.084669   -0.266825    1.319234
C      0.010795    0.636168    1.257404
C     -0.264673    1.469013    2.374267
C     -0.881797    0.739628   -0.000592
C     -2.337386    0.423703    0.437102
C     -2.653919   -0.851404    0.954772
C     -3.959422   -1.178225    1.326064
C     -4.993770   -0.245541    1.197813
C     -6.378612   -0.602033    1.545953
C     -6.932299   -0.089504    2.735172
C     -8.232860   -0.410858    3.123912
C     -9.004785   -1.251102    2.330316
C     -8.477560   -1.766537    1.145845
C     -7.168463   -1.453172    0.730752
C     -6.674803   -2.012486   -0.540993
C     -6.481646   -1.191372   -1.663442
C     -6.002246   -1.719139   -2.864336
C     -5.714407   -3.078273   -2.962025
C     -5.908248   -3.910148   -1.861289
C     -6.386781   -3.381223   -0.660005
C     -4.680966    1.030842    0.712044
C     -3.369824    1.361415    0.330065
C     -3.116636    2.714964   -0.201657
O     -4.026495    3.536224   -0.259090
C     -1.763941    3.072623   -0.672079
C     -1.564678    4.349260   -1.218179
C     -0.308800    4.729954   -1.692477
C      0.774346    3.847619   -1.623867
C      2.099186    4.234186   -2.139416
C      2.265956    4.368679   -3.532718
C      3.499750    4.710496   -4.087135
C      4.593879    4.924885   -3.258797
C      4.452067    4.799012   -1.876934
C      3.214888    4.456801   -1.294260
C      3.133817    4.360874    0.173433
C      3.740376    3.295069    0.856505
C      3.678938    3.211647    2.248808
C      3.010878    4.193326    2.977576
C      2.401035    5.256651    2.316141
C      2.464369    5.340489    0.923569
C      0.560659    2.574890   -1.070222
C     -0.705838    2.163007   -0.588769
C     -0.509265   -0.268400   -1.115628
C     -1.295726   -0.315214   -2.298134
C     -1.007083   -1.195431   -3.342838
C     -1.844871   -1.206697   -4.585362
C      0.107405   -2.017438   -3.227042
C      0.892531   -1.980494   -2.070863
C      0.599947   -1.120745   -0.988879
N      1.409754   -1.111883    0.200507
C      2.570791   -1.950554    0.268664
C      2.465498   -3.281472    0.682732
C      3.602721   -4.092317    0.745015
C      4.878466   -3.601052    0.401028
C      6.106867   -4.525561    0.479472
C      7.437291   -3.829916    0.113087
C      5.924032   -5.707568   -0.496264
C      6.260892   -5.070636    1.915947
C      4.964490   -2.260281   -0.012106
C      3.828304   -1.445680   -0.078051
H      1.006387    2.398451    5.386838
H     -0.141710    3.280483    4.380229
H     -0.678855    1.840135    5.282512
H      2.129007    0.397718    4.521847
H      2.657125   -1.017047    2.630547
H     -1.088171    2.180553    2.328095
H     -1.879772   -1.611039    1.058850
H     -4.169456   -2.177320    1.703099
H     -6.339041    0.565769    3.370688
H     -8.640198   -0.004466    4.045851
H    -10.018939   -1.503492    2.628299
H     -9.099470   -2.414487    0.530461
H     -6.702149   -0.127573   -1.602735
H     -5.853777   -1.066828   -3.720440
H     -5.339113   -3.489198   -3.895264
H     -5.684137   -4.970831   -1.935328
H     -6.525183   -4.042305    0.192774
H     -5.474565    1.770154    0.606723
H     -2.391712    5.054541   -1.280582
H     -0.178696    5.725142   -2.112479
H      1.422076    4.192887   -4.198001
H      3.603543    4.805491   -5.164734
H      5.557435    5.192476   -3.684239
H      5.317027    4.979460   -1.240535
H      4.257587    2.515971    0.301234
H      4.143814    2.374209    2.761917
H      2.958804    4.124336    4.060544
H      1.874758    6.021115    2.881259
H      1.986378    6.177922    0.420044
H      1.403776    1.885000   -1.018188
H     -2.154111    0.347670   -2.402072
H     -1.461316   -0.474533   -5.302661
H     -1.838123   -2.197326   -5.052297
H     -2.887883   -0.965192   -4.354703
H      0.378770   -2.698070   -4.030561
H      1.749093   -2.649236   -2.036906
H      1.495091   -3.687838    0.955671
H      3.474480   -5.123383    1.067331
H      7.426663   -3.452798   -0.915964
H      8.281447   -4.525768    0.190554
H      7.649330   -2.989047    0.783490
H      5.789771   -5.352268   -1.524796
H      6.797773   -6.369618   -0.483311
H      5.052095   -6.321284   -0.244900
H      6.353416   -4.252604    2.640148
H      5.406992   -5.685316    2.220833
H      7.154734   -5.699207    2.006646
H      5.912952   -1.812606   -0.295444
H      3.922564   -0.412455   -0.403333
