55
 xtb: 6.7.1 (edcfbbe)
O           -5.16304521481491        0.06445017032872        0.09103805657763
C           -3.88939910638028        0.05027571277343        0.04829507542942
C           -3.14479464430839       -1.18497739850666       -0.02429186500322
C           -3.86383131888585       -2.39893702628187       -0.07288291134617
C           -3.20907027825263       -3.60383935699593       -0.14066493208069
C           -1.81793978205797       -3.64544741984511       -0.16269136756593
C           -1.10093212172621       -2.45965780477038       -0.11521631426391
C           -1.74358070333379       -1.23547552411738       -0.04753571331659
C           -0.87160334740963        0.01368022649904        0.00468390123925
C           -1.71118655514353        1.28371597189850        0.07270435249106
C           -1.03731569122201        2.49200533253727        0.11876560756353
C           -1.72368887040309        3.69492376302635        0.18558851157288
C           -3.11546510340558        3.68715222550914        0.20659669204958
C           -3.80097192656886        2.49850280264169        0.16042488689125
C           -3.11335158782864        1.26736278673569        0.09318300608489
C           -0.04112761625613        0.06243638678186       -1.25002774112037
C           -0.68820584517095        0.13388149362396       -2.47680479124530
C            0.02316011089640        0.18101485869563       -3.65928587513754
C            1.41343274074733        0.15520252057697       -3.62534183937681
C            2.07722692206261        0.08428402510270       -2.42235378399998
C            1.36292552623394        0.03701534867472       -1.21501469358444
N            2.03564064856804       -0.03395647097693       -0.01472901025371
C            3.46501709451541       -0.05152323625144       -0.02450079169115
C            4.16916943358038        1.14491012243894        0.02244073695862
C            5.55329471556677        1.12390244970219        0.00964448630084
C            6.23113211772836       -0.08301504629666       -0.04960921190840
C            5.52504776004753       -1.27413075614380       -0.09580938204558
C            4.14073286510420       -1.26369158192412       -0.08310905941661
C            1.37714185186436       -0.08174508729069        1.19500336203607
C            2.10506839645001       -0.15368047902625        2.39295533803992
C            1.45474756257812       -0.19911021909339        3.60451412975051
C            0.06496287710167       -0.17326207743487        3.65675784170987
C           -0.65964920849201       -0.10365888093435        2.48347460423011
C           -0.02623812949900       -0.05816977163297        1.24842600771440
H           -4.94299730029437       -2.33282028226122       -0.11626401138175
H           -3.78341586186419       -4.51933460734324       -0.18259664403903
H           -1.30185367963047       -4.59333302206268       -0.14669193034748
H           -0.02259635534204       -2.49301899452946       -0.05052729944431
H            0.04407081754167        2.48860738591776        0.18219425501100
H           -1.17871883903185        4.62206896388056        0.28614470074173
H           -3.66131715616253        4.61799011529230        0.24731461749427
H           -4.87897738397870        2.46674738715433        0.11016070301385
H           -1.78124654671966        0.14958937302413       -2.46671405289980
H           -0.52281011873397        0.23601528602945       -4.58599182910552
H            1.95361283061229        0.19248034023104       -4.54152357939878
H            3.14244543674530        0.06603164544525       -2.40743186280480
H            3.63048654058969        2.08143815866327        0.06568533010708
H            6.09951865200245        2.05630319434212        0.02850689273799
H            7.30968557872202       -0.09089619474148       -0.08909159374197
H            6.05140366706781       -2.21211246744726       -0.16748798396973
H            3.58279420559503       -2.18537364654046       -0.12947815101283
H            3.19502489198276       -0.17462828748990        2.35724976555065
H            2.05226838865980       -0.25714498343608        4.51907235505863
H           -0.42206547799075       -0.21105561433026        4.62173750747444
H           -1.72643043275315       -0.08588046340465        2.53083393326429
