  101
 
 N        -10.9322421656       -7.2192315635       -0.5481983596
 C        -10.0094072054       -6.5362443773       -0.4739728291
 C         -8.8800886827       -5.7026185458       -0.3829371488
 C         -7.7947054754       -6.0722561260        0.4204355928
 C         -6.6904588365       -5.2545633980        0.5014545020
 C         -6.6325813511       -4.0464830980       -0.2028259386
 C         -5.4539386543       -3.1829778780       -0.1093431156
 C         -4.1692305171       -3.7367735260       -0.0522388903
 C         -3.0715515096       -2.9157246535        0.0137301261
 C         -3.2198626944       -1.5233659641        0.0402460932
 C         -4.5054398273       -0.9327769173        0.0050864130
 C         -5.5970824297       -1.7966146369       -0.0786579254
 C         -4.6474205376        0.5202003171        0.0722716803
 C         -5.8930338423        1.1234483909        0.1066174885
 C         -6.0810204035        2.5112759055        0.1784799581
 C         -7.4077066652        3.0894741928        0.1924858294
 C         -8.5095327640        2.3927731825        0.7249905832
 C         -9.7667189320        2.9413300442        0.7382340204
 C         -9.9858964760        4.2225776074        0.2059101318
 C        -11.2682142634        4.7850864335        0.2106362419
 N        -12.3239750239        5.2491685918        0.2142320610
 C         -8.8980624953        4.9307776733       -0.3310023542
 C         -7.6437379285        4.3758709146       -0.3295267790
 C         -4.9264864663        3.3210300952        0.2442254021
 C         -3.6815630560        2.7683100477        0.2203323546
 C         -3.4865472855        1.3680756710        0.1132504731
 C         -2.2311209741        0.7526857690        0.0688014715
 C         -2.0895470645       -0.6653503737        0.0831196506
 N         -0.8021020568       -1.0096173993        0.1204126191
 C         -0.0964717330        0.1214399844        0.0981964976
 C          1.3216284540        0.1093717430        0.0641738815
 C          2.1413007502        1.2027772191       -0.2947883239
 C          3.5046115334        1.0860730611       -0.3067576984
 C          4.1545094459       -0.1214967506        0.0216082221
 C          5.5941086026       -0.2306868322        0.0064519835
 C          6.4189526067        0.8890141090        0.2278847791
 C          7.7868038936        0.7892529766        0.2106198019
 C          8.4125704728       -0.4434559744       -0.0309209933
 N          9.7944679745       -0.5468432797       -0.0532892681
 C         10.4237228209       -1.7183134546        0.3874797391
 C          9.9366949164       -2.4040321277        1.5017753443
 C         10.5653869079       -3.5549357601        1.9355393233
 C         11.6844510228       -4.0354021895        1.2727732847
 C         12.1727505404       -3.3558847824        0.1671227136
 C         11.5498326030       -2.2060839022       -0.2777989734
 C         10.5761082082        0.5172835379       -0.5209847814
 C         10.1559810296        1.2727155783       -1.6174199495
 C         10.9341876978        2.3170185315       -2.0776933972
 C         12.1376022760        2.6205617555       -1.4595137699
 C         12.5595850561        1.8711848599       -0.3718440858
 C         11.7879055340        0.8268099572        0.0991059339
 C          7.6026033034       -1.5682609812       -0.2507619363
 C          6.2354280692       -1.4614932424       -0.2318598476
 C          3.3320957468       -1.2213481663        0.3506869607
 C          1.9718516698       -1.1120204258        0.3722958173
 N         -0.9424136841        1.2365388566        0.0690586130
 C         -0.5394537775        2.5881456613        0.1016156090
 C          0.0345848024        3.1110699470        1.2564147447
 C          0.4406503162        4.4333297175        1.2806243314
 C          0.2752716042        5.2347843140        0.1622805733
 C         -0.2991108022        4.7134053569       -0.9868047862
 C         -0.7065422642        3.3922717463       -1.0233719801
 C         -7.7253540259       -3.6867673684       -0.9997058829
 C         -8.8330557432       -4.4985759694       -1.0954076756
 H         -7.8360305822       -6.9990017478        0.9744890030
 H         -5.8662705764       -5.5382769093        1.1385034772
 H         -4.0429704765       -4.8080043950       -0.0950281051
 H         -2.0700476731       -3.3169768181        0.0378135354
 H         -6.5996932667       -1.4015377134       -0.0988436849
 H         -6.7769068392        0.5107895958        0.0464988097
 H         -8.3620318005        1.4190714408        1.1677873104
 H        -10.5990603297        2.3977654884        1.1632427602
 H         -9.0642100526        5.9137313853       -0.7492187388
 H         -6.8276947893        4.9273991386       -0.7716655388
 H         -5.0287050880        4.3898759022        0.3556052109
 H         -2.8192882097        3.4093990842        0.3044930354
 H          1.6950936053        2.1348828018       -0.6002088355
 H          4.0922216133        1.9351161143       -0.6217880401
 H          5.9698846499        1.8419353644        0.4605277177
 H          8.3945830881        1.6589813041        0.4121813286
 H          9.0759108557       -2.0197276798        2.0286051714
 H         10.1850888765       -4.0747776295        2.8022154489
 H         12.1737704561       -4.9339417102        1.6165052454
 H         13.0403455971       -3.7282211081       -0.3568705646
 H         11.9223104503       -1.6844525901       -1.1469248228
 H          9.2273903700        1.0245977112       -2.1099902739
 H         10.6036103696        2.8917521710       -2.9300408964
 H         12.7439929206        3.4356289568       -1.8241530232
 H         13.4930048305        2.1061660639        0.1176136285
 H         12.1111067805        0.2510485767        0.9536761126
 H          8.0670700883       -2.5192046864       -0.4662454131
 H          5.6426758096       -2.3357282766       -0.4507520424
 H          3.7857890832       -2.1599563974        0.6299204216
 H          1.3518873408       -1.9529478025        0.6401447284
 H          0.1600680986        2.4762356945        2.1212814084
 H          0.8841665804        4.8383662977        2.1776337669
 H          0.5924614566        6.2662744429        0.1855693533
 H         -0.4284654193        5.3353004397       -1.8598901534
 H         -1.1555237011        2.9747556531       -1.9130365754
 H         -7.6901767310       -2.7710323822       -1.5710345995
 H         -9.6689168599       -4.2179073904       -1.7201264863
