  51
 
 O          3.0534339391       -0.0447864361        1.5768910202
 C          2.4922590934       -0.5334651059        0.6150891510
 C          3.2491200056       -1.3357995672       -0.4402973751
 C          4.7026832654       -1.5274152537       -0.0690825556
 O          5.0770837885       -2.6437667399        0.2952372921
 C          5.6071482653       -0.3862961338       -0.1432797290
 C          5.1816923991        0.8845218282       -0.5611479885
 C          6.0492541329        1.9500252381       -0.6021205611
 C          7.3797106843        1.7785743999       -0.2287940330
 C          7.8306409560        0.5456258204        0.1825828667
 C          6.9620647842       -0.5483414465        0.2354481833
 O          7.4622230747       -1.7198517704        0.6473195261
 C          1.0369923998       -0.4008359358        0.4116087132
 C          0.3631902867       -0.8653051167       -0.7216907328
 C         -1.0020382161       -0.7116263172       -0.8347669844
 C         -1.7344221292       -0.0879533409        0.1774029603
 N         -3.1257513852        0.0580293350        0.0562515012
 C         -3.7187365875        1.3271608987        0.0803941301
 C         -2.9722170711        2.4976341309        0.1539709487
 C         -3.5911952622        3.7381998797        0.1641733275
 C         -4.9664712763        3.8341351570        0.0866663034
 C         -5.7243321132        2.6783850329       -0.0254427762
 C         -5.1104798057        1.4385967013       -0.0383338383
 O         -5.9292287180        0.3462445994       -0.1950875897
 C         -5.3339021277       -0.8916684729       -0.2227034577
 C         -6.1728190020       -1.9821454278       -0.3686438216
 C         -5.6562737860       -3.2689100432       -0.3644099186
 C         -4.2992646395       -3.4540558712       -0.1889714754
 C         -3.4547394459       -2.3638183784       -0.0460056839
 C         -3.9499498780       -1.0654956917       -0.0894624971
 C         -1.0669034739        0.3857422102        1.3081328626
 C          0.2963426413        0.2286113996        1.4187429724
 H          3.1604514630       -0.8378079234       -1.4059709787
 H          2.7922925744       -2.3265899931       -0.5057805478
 H          4.1540612973        1.0382261449       -0.8473464721
 H          5.6991015318        2.9188443637       -0.9228665219
 H          8.0619972067        2.6145455418       -0.2614054437
 H          8.8561251600        0.3875395732        0.4782443539
 H          6.7294028858       -2.3821772035        0.6398701453
 H          0.8989458102       -1.3380681097       -1.5287097978
 H         -1.5150072608       -1.0629155617       -1.7176583585
 H         -1.8960637693        2.4434706080        0.1947055136
 H         -2.9845610653        4.6283655500        0.2281364284
 H         -5.4540965697        4.7961097437        0.0990397558
 H         -6.7989465221        2.7149729489       -0.1119725345
 H         -7.2304384592       -1.7998702156       -0.4771974543
 H         -6.3176170739       -4.1126348746       -0.4826414392
 H         -3.8835702013       -4.4494016996       -0.1567317183
 H         -2.4009135921       -2.5286298280        0.1119401698
 H         -1.6270524497        0.8586799857        2.1005484423
 H          0.8207732354        0.5773893675        2.2961237167
