  72
 
 C         -3.8295276197       -0.4533053622       -2.4814168287
 C         -4.5384831706        0.5717830416       -1.5711280012
 C         -5.8336279333        0.9993894444       -2.2621073030
 C         -4.7884307453       -0.0610472223       -0.2147280825
 C         -6.0161239585       -0.4957711562        0.2476546808
 C         -6.1404830673       -1.0752760584        1.5038277697
 C         -5.0345148267       -1.2132104319        2.3256465725
 C         -3.7964946862       -0.7915709191        1.8874496662
 C         -3.6683582048       -0.2331455396        0.6126904472
 N         -2.4367195458        0.2563159798        0.1772535238
 C         -1.2755577922       -0.4855763659        0.3346199392
 C         -0.0019217063        0.0328660801        0.1397849617
 C          1.1426769176       -0.7103300882        0.3644494207
 N          2.4346086633       -0.1588346268        0.1602392889
 C          3.1777791057       -0.6134077809       -0.9088851664
 C          2.5773699747       -1.4642678012       -1.8504403914
 C          3.2977570479       -1.9665802564       -2.9091367886
 C          4.6325367751       -1.6196625546       -3.0600033972
 C          5.2187144430       -0.7512866040       -2.1569142821
 C          4.5172494020       -0.2268002976       -1.0804131428
 C          5.1978558005        0.7400354211       -0.1380258568
 C          5.6722221893        1.9644531203       -0.9468435110
 C          6.4042931543        0.0318437075        0.5106619085
 C          4.2700684744        1.2056894498        0.9617151783
 C          4.7271654764        2.1147836282        1.9066351379
 C          3.9351445985        2.5427488863        2.9562086206
 C          2.6489859336        2.0400685206        3.0906965586
 C          2.1680933226        1.1392154289        2.1687804999
 C          2.9564363140        0.7227134701        1.0850009706
 C          1.0352951460       -2.0848079247        0.8125418404
 C          2.1734714482       -2.8152992240        1.1323226642
 N          3.1324874287       -3.4066225635        1.4002802134
 C         -0.2290469031       -2.6507018179        0.8759462551
 C         -1.3824513622       -1.9235400746        0.5989916849
 C         -2.5486208110       -2.6682330915        0.4398184808
 N         -3.4189011428       -3.4119663023        0.2534259970
 C         -2.5358066954        1.5225038551       -0.4177739616
 C         -1.7112770482        2.5845216901       -0.0471587333
 C         -1.8698379972        3.8238728067       -0.6354191963
 C         -2.8670980963        4.0206716571       -1.5756370782
 C         -3.7377085691        2.9872998207       -1.8879074503
 C         -3.6010629391        1.7365515193       -1.3110258376
 H         -3.6021194728        0.0019479558       -3.4430249563
 H         -2.9017221483       -0.8095752480       -2.0412519550
 H         -4.4754840603       -1.3137016159       -2.6414209789
 H         -6.3735517367        1.7281364215       -1.6620565736
 H         -5.6148663986        1.4284441127       -3.2363312422
 H         -6.4680774512        0.1324053937       -2.4255710186
 H         -6.8962360314       -0.3962486924       -0.3660184120
 H         -7.1088145844       -1.4107933461        1.8424490249
 H         -5.1364562978       -1.6441676649        3.3101892247
 H         -2.9304237938       -0.8634602205        2.5295352103
 H          0.1272757754        1.0430029982       -0.2116947305
 H          1.5358689948       -1.7242582419       -1.7426233186
 H          2.8191469695       -2.6261863728       -3.6169526242
 H          5.2090511799       -2.0155866120       -3.8817583568
 H          6.2527718961       -0.4798977360       -2.2997488627
 H          6.3450406599        1.6610460613       -1.7429151315
 H          4.8172986794        2.4701170928       -1.3917036948
 H          6.1960905830        2.6682529377       -0.3075835944
 H          6.0671194460       -0.8437410796        1.0628977962
 H          7.1121996870       -0.2917791153       -0.2463703454
 H          6.9172322404        0.6971499393        1.1988003884
 H          5.7320168941        2.4988380859        1.8294635633
 H          4.3211836364        3.2527537212        3.6712030862
 H          2.0240981973        2.3479008974        3.9153223977
 H          1.1741873394        0.7363147265        2.2825708716
 H         -0.3247344826       -3.7018709594        1.1162663277
 H         -0.9858658731        2.4571640416        0.7405969545
 H         -1.2246527336        4.6388661113       -0.3437872504
 H         -2.9894117414        4.9851228110       -2.0443913513
 H         -4.5330476232        3.1743531883       -2.5901051493
