  133
 
 C         10.7331542077       -5.1037851638       -1.1464672118
 C         11.6359074862       -4.2801589775       -0.2781274608
 C         12.4521813221       -4.8938209222        0.6666567077
 C         13.2961755481       -4.1348812420        1.4572214854
 C         13.3354853768       -2.7598222033        1.3268372609
 C         12.5275753869       -2.1296783580        0.3823495269
 N         12.5508444305       -0.7373470565        0.2387108439
 C         13.7539941746       -0.0382187249        0.3756509956
 C         14.9494740998       -0.5868569757       -0.0887160013
 C         16.1352824532        0.1067766149        0.0532154287
 C         16.1509136661        1.3571016991        0.6494587344
 C         14.9659470186        1.9085826497        1.1086336655
 C         13.7762746046        1.2193432429        0.9791683687
 C         11.3665670934       -0.0500133549       -0.0462904586
 C         11.3789964431        1.0510471485       -0.9056464801
 C         10.2156062393        1.7337646690       -1.2049986190
 C          9.0206465775        1.3045570038       -0.6491187588
 C          9.0033104308        0.1978476190        0.2139745579
 C         10.1608161301       -0.4733087901        0.5235595021
 C          7.5975035783       -0.0872852435        0.6920599456
 C          7.1416463111       -1.4794210592        0.2441170264
 C          7.4895686736        0.0486175578        2.2134551896
 C          6.8140516658        0.9988257225       -0.0119722635
 C          5.4635505686        1.2505413342        0.0342175979
 C          4.9366276116        2.3201094870       -0.6959443644
 C          3.4955830992        2.6002286090       -0.6603543194
 C          3.0308787060        3.9138880881       -0.5884551537
 C          1.6784040982        4.1995130634       -0.5541792508
 C          0.7730743631        3.1516116676       -0.5974633040
 C          1.2285201138        1.8265466294       -0.6702647804
 C          2.5747315655        1.5491726914       -0.6987801628
 C          0.0640175802        0.8619878939       -0.7122487926
 C          0.0834856364       -0.0820628224        0.4936425223
 C          0.0570894130        0.0626322372       -2.0188104453
 C         -1.1142241950        1.8083816515       -0.6469972979
 C         -2.4563337742        1.5102969312       -0.6479543810
 C         -3.3919058657        2.5474678345       -0.5949044103
 C         -4.8288879191        2.2445053712       -0.6018192853
 C         -5.7093861097        3.0096722841       -1.3668410510
 C         -7.0643106018        2.7350739366       -1.3967096901
 C         -7.5490401888        1.6796948283       -0.6408714134
 C         -6.6732275887        0.9072405703        0.1377189642
 C         -5.3261870384        1.1803256165        0.1561844032
 C         -7.4282680057       -0.1750222533        0.8776789051
 C         -6.9412300458       -1.5690489592        0.4728970901
 C         -7.3176621066        0.0122870131        2.3940744913
 C         -8.8445333911        0.0720597854        0.4092376509
 C         -9.9849957876       -0.6164467109        0.7436445367
 C        -11.2093275401       -0.2095876341        0.2022231838
 N        -12.3831032114       -0.8901998225        0.5411601989
 C        -12.5583939362       -1.3766089455        1.8399930989
 C        -13.2181734228       -2.5858789544        2.0606774824
 C        -13.3903701030       -3.0611835775        3.3459579857
 C        -12.9027899833       -2.3494472661        4.4298173616
 C        -12.2432527539       -1.1499192791        4.2165558914
 C        -12.0741689899       -0.6614306927        2.9360035826
 C        -13.3845772536       -1.0793176945       -0.4191576411
 C        -14.7299315224       -0.9980539556       -0.0664166192
 C        -15.7047486973       -1.1894379752       -1.0269308934
 C        -15.3575558147       -1.4515435773       -2.3397488643
 C        -14.0185505914       -1.5318194386       -2.7093813030
 C        -13.6462607524       -1.8241120886       -4.1316517275
 C        -13.0434984226       -1.3502203657       -1.7438156630
 C        -11.2536150403        0.8776048083       -0.6736986029
 C        -10.1036604116        1.5612697012       -1.0188049314
 C         -8.8934031457        1.1619841537       -0.4737617368
 C         -2.9466999495        3.8683537517       -0.5364733357
 C         -1.5982958103        4.1746350087       -0.5269377102
 C         -0.6780573971        3.1404645241       -0.5842425476
 C          5.7926543471        3.1128050531       -1.4610067351
 C          7.1514181711        2.8623697494       -1.5156944532
 C          7.6652218102        1.8013496002       -0.7875074932
 C         11.6863980163       -2.9037210371       -0.4166040285
 H         10.0283014995       -4.4743265410       -1.6838684629
 H         10.1775526269       -5.8230216972       -0.5472121640
 H         11.3207285397       -5.6622162593       -1.8752323511
 H         12.4233232823       -5.9675199943        0.7803800367
 H         13.9236114781       -4.6173690048        2.1923630296
 H         13.9848070575       -2.1684889534        1.9551782881
 H         14.9389072376       -1.5572077940       -0.5632876645
 H         17.0533440005       -0.3290999768       -0.3129702024
 H         17.0793192529        1.8975322142        0.7553813223
 H         14.9687760574        2.8805912980        1.5799276698
 H         12.8551676865        1.6474242219        1.3469102014
 H         12.3159326300        1.3624528359       -1.3439908897
 H         10.2414108201        2.5806544638       -1.8743219707
 H         10.1571018882       -1.3190445445        1.1956522474
 H          6.1110819150       -1.6546035847        0.5442308921
 H          7.7707084351       -2.2451206824        0.6926679701
 H          7.2076757847       -1.5651807502       -0.8386904378
 H          8.1114262545       -0.6965328757        2.7042915084
 H          6.4595466994       -0.0908802797        2.5334396710
 H          7.8188297922        1.0373700763        2.5259450613
 H          4.8084285560        0.6463292747        0.6453185969
 H          3.7468847161        4.7213315529       -0.5369374271
 H          1.3367844572        5.2223121910       -0.4924376530
 H          2.9288779513        0.5311072371       -0.7752925925
 H          0.0880886243        0.4905942730        1.4189322178
 H         -0.7949527515       -0.7233435571        0.4857751627
 H          0.9716665443       -0.7093161815        0.4683395706
 H          0.0423407652        0.7380573630       -2.8716523860
 H          0.9457277916       -0.5609255777       -2.0854276524
 H         -0.8218903169       -0.5761328753       -2.0668527876
 H         -2.7969393421        0.4868712729       -0.7142399887
 H         -5.3165377640        3.8186186662       -1.9657352671
 H         -7.7304285427        3.3326014257       -2.0015559124
 H         -4.6510699026        0.5984225466        0.7672286621
 H         -5.9020643095       -1.7049850967        0.7635820840
 H         -7.5413391184       -2.3349704764        0.9587348545
 H         -7.0205597764       -1.6962158997       -0.6048206316
 H         -7.9286789317       -0.7245053184        2.9108448024
 H         -7.6596122707        1.0063138674        2.6748771565
 H         -6.2849640408       -0.1023713613        2.7152422265
 H         -9.9533387153       -1.4636832463        1.4132188300
 H        -13.5905042230       -3.1486366465        1.2171447062
 H        -13.9018578305       -3.9998733586        3.5014974590
 H        -13.0361569202       -2.7261457090        5.4325940029
 H        -11.8647229150       -0.5843063060        5.0555368121
 H        -11.5691710138        0.2797315768        2.7743742509
 H        -15.0027887512       -0.7818694061        0.9558225517
 H        -16.7462955764       -1.1232449739       -0.7482443928
 H        -16.1259854384       -1.5949197596       -3.0850894412
 H        -14.0184775162       -2.8048597398       -4.4261324896
 H        -14.0909450780       -1.0869645835       -4.7988333782
 H        -12.5674921428       -1.8080924357       -4.2638054883
 H        -11.9990170220       -1.4193228920       -2.0131832380
 H        -12.2068916569        1.1846478309       -1.0784614056
 H        -10.1551620322        2.4016330003       -1.6948528385
 H         -3.6744790494        4.6645850475       -0.4754830883
 H         -1.2711853235        5.2026570249       -0.4740303162
 H          5.3776569260        3.9250383383       -2.0401094581
 H          7.7981518565        3.4823797239       -2.1189389837
 H         11.0663904945       -2.4148386636       -1.1547234286
