  96
 
 C          9.8364150014        2.9677689185       -0.0663954829
 C          8.8283628692        3.2921898044       -0.9584274780
 C          7.6572679499        2.5577424632       -0.9802236807
 C          7.4811271891        1.4797924612       -0.1163503269
 C          6.2294749213        0.7064120799       -0.1395138265
 C          5.0197562377        1.3882825687       -0.0963600961
 C          3.7997060176        0.7227753868       -0.0601808666
 N          2.6301339605        1.3641014150       -0.0222995558
 C          1.4771438891        0.7101873703        0.0214610832
 C          0.2356499377        1.4132332159        0.0664468303
 C          0.2420014462        2.8184888605        0.0325972254
 C         -0.9245418426        3.5323835556        0.0448986401
 C         -2.1486481412        2.8500882849        0.1199760675
 N         -3.3616174800        3.5774581478        0.1188957389
 C         -3.6449742943        4.4748827603        1.1461483418
 C         -2.8124720734        4.6243465701        2.2498929547
 C         -3.1199938698        5.5316726999        3.2508331214
 C         -4.2681101957        6.2958573205        3.1739847381
 C         -5.1260963230        6.1356925076        2.0965468244
 C         -4.8252993571        5.2308718193        1.0950554481
 O         -5.7328773099        5.1040570128        0.0751611728
 C         -5.4572104515        4.1904304078       -0.9093270297
 C         -6.3923181542        4.0580124234       -1.9196716048
 C         -6.1719672282        3.1753149505       -2.9657523322
 C         -5.0023971404        2.4416483311       -3.0016170036
 C         -4.0617784423        2.5696363259       -1.9924866216
 C         -4.2796926090        3.4273585771       -0.9195460945
 C         -2.1735349997        1.4729265070        0.1783357088
 C         -0.9953605657        0.7165182586        0.1331012552
 C         -0.9941895001       -0.7245854716        0.1269029993
 C         -2.1712913924       -1.4829580617        0.1657092596
 C         -2.1446669516       -2.8595360043        0.0956316399
 N         -3.3570232640       -3.5879855384        0.0893123239
 C         -4.2770954490       -3.4276193847       -0.9457990602
 C         -4.0582675711       -2.5638652660       -2.0136915329
 C         -5.0012083529       -2.4249462995       -3.0191975512
 C         -6.1741438130       -3.1532841009       -2.9845972495
 C         -6.3953017512       -4.0422723043       -1.9440019460
 C         -5.4576445768       -4.1859796067       -0.9375863394
 O         -5.7339160980       -5.1057020771        0.0410425905
 C         -4.8235768544       -5.2437564506        1.0570089613
 C         -5.1243928598       -6.1556009638        2.0520914358
 C         -4.2640926544       -6.3267813546        3.1259850327
 C         -3.1136563697       -5.5664316141        3.2059106555
 C         -2.8059295408       -4.6523232574        2.2112048367
 C         -3.6406905608       -4.4919219677        1.1107270175
 C         -0.9197131995       -3.5394713615        0.0138905209
 C          0.2459233009       -2.8238697151        0.0075321771
 C          0.2378530076       -1.4189986886        0.0543006514
 C          1.4784422395       -0.7137556832        0.0160041392
 N          2.6327660268       -1.3651432264       -0.0302380730
 C          3.8011931274       -0.7213033088       -0.0643683281
 C          5.0221601640       -1.3838040357       -0.1196810086
 C          6.2302085467       -0.6989880645       -0.1643638821
 C          7.4788928875       -1.4689266817       -0.2797161879
 C          7.7218927048       -2.5462867249        0.5684550388
 C          8.8901831406       -3.2774392880        0.4593429386
 C          9.8280702577       -2.9502317069       -0.5052585353
 C          9.5884086344       -1.8897919474       -1.3636061002
 C          8.4242656411       -1.1538384136       -1.2531570522
 C          8.4972206512        1.1675984911        0.7839971317
 C          9.6642970945        1.9068366524        0.8074090832
 H         10.7515781801        3.5412230018       -0.0501935970
 H          8.9559537436        4.1201088237       -1.6410464566
 H          6.8767876743        2.8043566363       -1.6861063773
 H          5.0092432113        2.4671688539       -0.0605905558
 H          1.1984003610        3.3151164062       -0.0228227638
 H         -0.9191072296        4.6106195825       -0.0085206333
 H         -1.9208860466        4.0224967498        2.3279015132
 H         -2.4533752024        5.6325588584        4.0933040065
 H         -4.5079054113        7.0066693757        3.9487449690
 H         -6.0397256504        6.7024905163        2.0155159718
 H         -7.2850312008        4.6606572427       -1.8703233430
 H         -6.9081677999        3.0754727783       -3.7474020398
 H         -4.8086730654        1.7638172223       -3.8185072741
 H         -3.1449987144        2.0041680952       -2.0442366436
 H         -3.1341789034        0.9877084827        0.2512415437
 H         -3.1325855071       -0.9996381528        0.2426103071
 H         -3.1390405474       -2.0022420214       -2.0642122316
 H         -4.8067018958       -1.7427514248       -3.8322623943
 H         -6.9123789321       -3.0445525925       -3.7631344128
 H         -7.2906466202       -4.6411156781       -1.8960531125
 H         -6.0399778526       -6.7189558257        1.9690757729
 H         -4.5039610897       -7.0430022655        3.8957226880
 H         -2.4453458788       -5.6756493448        4.0459984818
 H         -1.9124655043       -4.0536023255        2.2916716816
 H         -0.9127901616       -4.6171603369       -0.0494001265
 H          1.2028741393       -3.3188072824       -0.0531960752
 H          5.0117889400       -2.4627351082       -0.1538124114
 H          6.9967982412       -2.7951527607        1.3303919231
 H          9.0706232504       -4.1049828339        1.1303896962
 H         10.7410367735       -3.5211788263       -0.5897652991
 H         10.3124806238       -1.6356594586       -2.1240404464
 H          8.2368292106       -0.3349800105       -1.9320660804
 H          8.3632477696        0.3482866560        1.4749185880
 H         10.4437714487        1.6548387150        1.5117162473
