  99
 
 C          0.5844254445        1.5967826585        1.9786476456
 C         -0.2786516688        1.9525689617        0.7713540708
 C         -0.0780164454        3.3851629137        0.3191481656
 C         -1.1747712716        4.2270069337        0.1917167870
 C         -1.0193382543        5.5258881273       -0.2573265591
 C          0.2372972075        5.9976955250       -0.5923358151
 C          1.3359400847        5.1647328691       -0.4730375422
 C          1.1787820186        3.8682157996       -0.0196613703
 N         -0.1224490761        1.0619217150       -0.3978683582
 C         -1.2957233198        0.7651907290       -1.0919328057
 C         -2.3538230188        0.1459578433       -0.4167369661
 C         -3.5092844124       -0.2186858640       -1.0898477956
 N         -4.5748000186       -0.8198059225       -0.3714336710
 C         -5.4213591929       -0.0094950418        0.3733689903
 C         -5.2013376355        1.3706473931        0.4130272815
 C         -6.0185043781        2.1999667477        1.1529909932
 C         -7.0791143386        1.6657647450        1.8624634317
 C         -7.3115797625        0.3037528465        1.8063513872
 C         -6.5050588374       -0.5541772775        1.0700410666
 C         -6.8337462462       -2.0351462142        1.0278108605
 C         -6.7905999661       -2.5952104631        2.4620968088
 C         -8.2433287638       -2.2063979732        0.4310084170
 C         -5.8449144135       -2.8100771277        0.1764300645
 C         -5.9918963956       -4.1840427983        0.0374117023
 C         -5.1091256330       -4.9465254331       -0.7052824432
 C         -4.0355292647       -4.3295005295       -1.3221068222
 C         -3.8666313809       -2.9655184525       -1.2026690194
 C         -4.7706462203       -2.1908302745       -0.4702605914
 C         -3.6304557698       -0.0040304314       -2.4634397252
 C         -2.5920926083        0.6026633032       -3.1409301214
 C         -1.4564266706        0.9946127754       -2.4569904551
 S         -0.1667280997        1.9000977418       -3.2740596029
 O         -0.1009626118        1.5452500341       -4.6742772187
 O         -0.3339953332        3.3079473978       -2.9817538908
 C          1.2546443282        1.2746198832       -2.4144447361
 C          2.4455214517        1.0830258282       -3.0891095438
 C          3.5482576372        0.5921568239       -2.4193420764
 C          3.4235347713        0.2600402132       -1.0707360364
 N          4.5329651073       -0.2772148815       -0.3658993262
 C          4.8560495927       -1.6174823455       -0.5299122971
 C          4.0690903969       -2.4215289584       -1.3592497643
 C          4.3686888091       -3.7551029006       -1.5463585518
 C          5.4586202474       -4.3123479573       -0.9020411698
 C          6.2261918369       -3.5225441243       -0.0657432449
 C          5.9470877096       -2.1781397061        0.1421682773
 C          6.8149713331       -1.3738994099        1.0929008807
 C          6.7311671666       -2.0108982348        2.4927342777
 C          8.2676053075       -1.4010880253        0.5814850930
 C          6.3631580837        0.0717151257        1.1853497828
 C          7.0532248384        0.9548165796        2.0054400661
 C          6.7033779554        2.2888262888        2.1102068077
 C          5.6437900806        2.7711094133        1.3630434502
 C          4.9421252341        1.9148410496        0.5402492649
 C          5.2753231769        0.5602732119        0.4547644285
 C          2.2161572290        0.4243399660       -0.4080493519
 C          1.1023898348        0.9609062306       -1.0632799636
 H          0.4819598611        0.5424598364        2.2229845818
 H          0.2325772599        2.1818677689        2.8256934063
 H          1.6302576578        1.8387322416        1.8223662811
 H         -1.3240287626        1.8447927986        1.0728754817
 H         -2.1611971091        3.8633959292        0.4447098073
 H         -1.8827530018        6.1681396215       -0.3537030055
 H          0.3596851465        7.0088173773       -0.9521382232
 H          2.3195780753        5.5242703571       -0.7391166829
 H          2.0438610896        3.2282750618        0.0630180360
 H         -2.2745299567       -0.0697770537        0.6380175723
 H         -4.3875260929        1.7964655615       -0.1538152678
 H         -5.8281337836        3.2631819651        1.1684675934
 H         -7.7256499357        2.3031954533        2.4465900756
 H         -8.1515869195       -0.0971344170        2.3528201669
 H         -7.0531200166       -3.6492475026        2.4748571989
 H         -5.7883261806       -2.4855525154        2.8725769580
 H         -7.4855251397       -2.0645508816        3.1067795232
 H         -8.5189513020       -3.2561977336        0.3833383547
 H         -8.2718609815       -1.7977487362       -0.5778183924
 H         -8.9844544474       -1.6867756324        1.0318055526
 H         -6.8184595330       -4.6805845738        0.5223725358
 H         -5.2550835504       -6.0125662522       -0.7941534973
 H         -3.3259134855       -4.9073066952       -1.8959245309
 H         -3.0227991274       -2.4912613530       -1.6800114451
 H         -4.5295689029       -0.3059149009       -2.9767627531
 H         -2.6414437589        0.8017681022       -4.2000925199
 H          2.4801017378        1.3327530066       -4.1380391534
 H          4.4900305461        0.4492430741       -2.9250709742
 H          3.2134459958       -1.9952223124       -1.8601669849
 H          3.7478542953       -4.3557322185       -2.1948646373
 H          5.7065418721       -5.3537111031       -1.0425298296
 H          7.0666145303       -3.9741131037        0.4390607450
 H          7.0586650786       -3.0464043127        2.4671519488
 H          5.7037799221       -1.9841847534        2.8516353189
 H          7.3563452470       -1.4736444405        3.2004003871
 H          8.6351069502       -2.4209152927        0.5110037025
 H          8.3217441020       -0.9474609588       -0.4068158226
 H          8.9240564824       -0.8489726459        1.2481607275
 H          7.8923233838        0.5969167876        2.5823630006
 H          7.2601165129        2.9460137416        2.7610907641
 H          5.3628665827        3.8128578624        1.4154614326
 H          4.1301860433        2.2994340855       -0.0575570870
 H          2.1437207399        0.1035984295        0.6168784884
