  94
 
 C          6.9774795177        0.2744229461        1.8098773684
 C          6.1703045333        0.0963901749        0.5098915129
 C          6.8034650316        0.9193733610       -0.6278098376
 C          6.1951363077       -1.3689705709        0.1178493675
 C          7.4115054423       -1.9789806238       -0.1602928009
 C          7.4986459247       -3.3017232311       -0.5529588246
 C          6.3383662322       -4.0419349668       -0.6923617106
 C          5.1170584382       -3.4617500826       -0.4189534595
 C          5.0292780543       -2.1333124511        0.0071357818
 N          3.7854424538       -1.5809410555        0.2927336029
 C          2.6238374543       -2.3753893178        0.1455183646
 C          2.3260793184       -3.3798775689        1.0637786593
 C          1.1791344971       -4.1436105567        0.9221291139
 C          0.3023423438       -3.8961257936       -0.1228041727
 C          0.6059091648       -2.8967972678       -1.0277946749
 S         -0.5667778075       -2.4846959312       -2.3216509868
 O          0.1437401687       -1.8668708293       -3.4195286474
 O         -1.3768214804       -3.6423237436       -2.6262784235
 C         -1.6036026877       -1.2366323308       -1.5453430367
 C         -2.9242091476       -1.5210508055       -1.2762346683
 C         -3.7144351264       -0.5455418880       -0.6639291408
 N         -5.0552134758       -0.8028273239       -0.3813337095
 C         -6.1271253555        0.0190244607       -0.6914416494
 C         -6.1486503862        1.2317163178       -1.3647329532
 C         -7.3757888631        1.8352035553       -1.5698070451
 C         -8.5586371558        1.2479531721       -1.1270497894
 C         -8.5455954711        0.0277523594       -0.4803205032
 C         -7.3243759329       -0.5972308608       -0.2632230846
 C         -6.9511074842       -1.8489064299        0.3377331598
 C         -7.6734096922       -2.8657561417        0.9490510161
 C         -6.9869154394       -3.9501856377        1.4590336797
 C         -5.5979990426       -4.0203676879        1.3787469374
 C         -4.8583243630       -3.0201007628        0.7752511188
 C         -5.5450840743       -1.9418376155        0.2368765567
 C         -3.1556602146        0.6903485812       -0.3474361687
 C         -1.8169399442        0.9606462694       -0.6260398954
 N         -1.2644412085        2.1979076694       -0.3018016454
 C         -1.4076239910        2.8629424411        0.9063252412
 C         -2.0507307740        2.4628249838        2.0688316604
 C         -2.0063228173        3.3138221242        3.1581430799
 C         -1.3329307206        4.5317375680        3.1036128054
 C         -0.6671628193        4.9225152239        1.9583945973
 C         -0.6966235279        4.0830166760        0.8522603398
 C         -0.0990615335        4.1538149912       -0.4533483806
 C          0.6918590726        5.1040005025       -1.0858455562
 C          1.0993563993        4.8667902428       -2.3835848523
 C          0.7119775925        3.7089407539       -3.0538478300
 C         -0.0767044460        2.7500362538       -2.4448789169
 C         -0.4645264125        2.9696299547       -1.1311706687
 C         -1.0299006806       -0.0240188916       -1.2247648838
 C          1.7548607727       -2.1418789157       -0.9169276652
 C          3.6421175783       -0.2442451672        0.6505083840
 C          2.3748698867        0.2623030257        0.9562465895
 C          2.2027978705        1.5831927045        1.3147549250
 C          3.2973618077        2.4255672830        1.3822048629
 C          4.5546492818        1.9205277534        1.1088229998
 C          4.7572020726        0.5939898617        0.7499167817
 H          6.5225776922       -0.3054882678        2.6111587829
 H          8.0009320980       -0.0655753073        1.6790370954
 H          7.0001294731        1.3177652515        2.1117846704
 H          6.8054028468        1.9784204726       -0.3863066931
 H          7.8295349779        0.6105508716       -0.8057963990
 H          6.2379195895        0.7780816185       -1.5474549112
 H          8.3230214588       -1.4078222478       -0.0718984049
 H          8.4614546815       -3.7448599295       -0.7582373144
 H          6.3791830979       -5.0713714643       -1.0167722132
 H          4.2173364036       -4.0436100605       -0.5469280705
 H          3.0041991325       -3.5586170990        1.8847422185
 H          0.9626061239       -4.9249633909        1.6338670573
 H         -0.5989700509       -4.4712423080       -0.2611575912
 H         -3.3281414724       -2.4764791674       -1.5690899081
 H         -5.2427903214        1.6878076789       -1.7338625507
 H         -7.4170749666        2.7814463247       -2.0890059131
 H         -9.4972774916        1.7519093284       -1.3037615092
 H         -9.4635372950       -0.4375991832       -0.1545639024
 H         -8.7482437666       -2.8028963247        1.0266876420
 H         -7.5297309681       -4.7531093150        1.9354595244
 H         -5.0867767040       -4.8731673813        1.8006338316
 H         -3.7814671138       -3.0768352600        0.7338860432
 H         -3.7682439440        1.4485502324        0.1151009750
 H         -2.5568138509        1.5120350433        2.1353761824
 H         -2.5023294718        3.0241399285        4.0727430558
 H         -1.3241785235        5.1701903834        3.9745289811
 H         -0.1273389475        5.8565246537        1.9212009877
 H          0.9763560555        6.0093419693       -0.5713886629
 H          1.7183622106        5.5899777131       -2.8936044293
 H          1.0305790391        3.5559608923       -4.0746299152
 H         -0.3819975753        1.8670808655       -2.9860754682
 H          0.0112649124        0.1530368026       -1.4343814390
 H          1.9734176407       -1.3888648430       -1.6581464274
 H          1.5148319750       -0.3889873376        0.9233140078
 H          1.2151949417        1.9512432320        1.5479299013
 H          3.1755575374        3.4615248619        1.6587653730
 H          5.4029794330        2.5833920016        1.1847134684
