  105
 
 C          1.3799008417        4.5662492178       -2.8655733261
 S         -0.3522787729        4.0233214572       -2.7521210641
 C         -0.1682042462        2.5507406220       -1.8026778889
 N         -1.2768662551        1.8854805719       -1.5865672342
 C         -1.1804303206        0.7614646449       -0.7955099655
 N         -2.3697523231        0.0952891730       -0.5211011612
 C         -3.5090849966        0.6663251746       -0.0197200972
 C         -3.7265127049        2.0005756433        0.2950351867
 C         -4.9567594398        2.3602839092        0.7956256754
 C         -5.9755915619        1.4146604536        0.9917792120
 C         -7.3118254318        1.8857997562        1.5453542317
 C         -7.0861708118        2.5205527075        2.9267139420
 C         -7.9082207333        2.9283424383        0.5864985528
 C         -8.3301338027        0.7526066827        1.7058215391
 C         -5.7371670929        0.0819200558        0.6749913335
 C         -4.5044421219       -0.3305212657        0.1710200991
 C         -3.9189024076       -1.5865914183       -0.2630314943
 C         -4.3255036304       -2.9334827612       -0.3516398748
 C         -5.6845797572       -3.4198585978        0.1280799156
 C         -5.8261134350       -3.1005389574        1.6261677250
 C         -5.8796722940       -4.9371878791       -0.0065153155
 C         -6.7737131938       -2.7606222155       -0.7362712463
 C         -3.4248759031       -3.8307683299       -0.9186861031
 C         -2.1773211482       -3.4620982075       -1.4099210600
 C         -1.7502768655       -2.1551668406       -1.3100286244
 C         -2.6088815945       -1.2492957114       -0.7095125450
 C          0.0371964468        0.3699709405       -0.2311112176
 C          0.1117199723       -0.6674059084        0.8481339495
 C          1.1577275960        1.1043675014       -0.6288290800
 N          2.4427481250        0.7953404150       -0.1941395062
 C          3.0719135587       -0.4147480274       -0.3263233911
 C          2.6147015674       -1.5524568164       -0.9768460714
 C          3.4168875442       -2.6702240232       -0.9887632949
 C          4.6727801741       -2.6783649498       -0.3607933651
 C          5.4927606502       -3.9594649307       -0.3864376984
 C          4.6843822969       -5.0845460453        0.2789069720
 C          6.8264833312       -3.8336641458        0.3564248475
 C          5.7942662567       -4.3307263911       -1.8469886289
 C          5.1358891898       -1.5167853450        0.2431064446
 C          4.3655831613       -0.3533372272        0.2600306252
 C          4.5367083191        1.0068314237        0.7363628181
 C          5.5534997660        1.7555704912        1.3631257627
 C          6.9162916289        1.1734609077        1.7074498833
 C          6.7253921466        0.0456477789        2.7367424532
 C          7.8770151814        2.1868886587        2.3463841088
 C          7.5932031026        0.6987685480        0.4099983494
 C          5.2677406234        3.0851213534        1.6627231389
 C          4.0537222576        3.6970624883        1.3712293139
 C          3.0513775215        2.9888147251        0.7431821417
 C          3.3127554103        1.6663131815        0.4271410696
 N          1.0424417708        2.2229866634       -1.4276890967
 H          1.4000357055        5.3833812360       -3.5785134158
 H          1.7181891908        4.8992478917       -1.8898234821
 H          1.9845718001        3.7330254603       -3.2072803703
 H         -2.9477369572        2.7300246706        0.1331269523
 H         -5.1284197694        3.3968527716        1.0386516861
 H         -8.0342996998        2.8559907905        3.3414504237
 H         -6.4195156308        3.3763251362        2.8681023031
 H         -6.6484022123        1.7932277700        3.6078048024
 H         -8.0508533128        2.4932253926       -0.4007473546
 H         -8.8729840983        3.2671008301        0.9581363532
 H         -7.2600441092        3.7942250210        0.4849815769
 H         -9.2576661016        1.1586181758        2.1044439526
 H         -8.5537389989        0.2879001729        0.7486223712
 H         -7.9709894814       -0.0029874027        2.4003138259
 H         -6.5254600775       -0.6307049992        0.8227644483
 H         -5.2065737770       -3.7888095702        2.1990510831
 H         -5.5019030263       -2.0953555647        1.8668447484
 H         -6.8585122100       -3.2281589920        1.9446867397
 H         -6.8644221769       -5.1944855894        0.3791114761
 H         -5.8359667823       -5.2586525908       -1.0445933844
 H         -5.1402973885       -5.4885533245        0.5701531879
 H         -6.8082944025       -3.2514860825       -1.7074919037
 H         -6.5762905849       -1.7099437045       -0.9140274942
 H         -7.7492365501       -2.8683638052       -0.2668980837
 H         -3.6960592079       -4.8682616696       -1.0092690649
 H         -1.5463733116       -4.2050390458       -1.8742288119
 H         -0.7988971596       -1.8331221413       -1.7052512195
 H         -0.8040876783       -0.6565356237        1.4377628868
 H          0.9530904347       -0.4607565375        1.5077091898
 H          0.2380279175       -1.6736578631        0.4511199193
 H          1.6592855329       -1.5470001922       -1.4799254291
 H          3.0626132220       -3.5516029604       -1.4994995098
 H          3.7495252452       -5.2677348411       -0.2433265326
 H          5.2603759181       -6.0074539524        0.2780815545
 H          4.4533381198       -4.8224326068        1.3096604315
 H          6.6702783719       -3.5832838249        1.4030155980
 H          7.3512442110       -4.7860642491        0.3148942998
 H          7.4633111370       -3.0823349085       -0.1039877231
 H          6.3958808150       -5.2363719120       -1.8846593574
 H          6.3461647311       -3.5284159178       -2.3330207376
 H          4.8817692125       -4.5054343099       -2.4103035784
 H          6.1086960312       -1.5247046551        0.6951694570
 H          5.8835909233       -0.5923467167        2.4950596592
 H          7.6257790581       -0.5608902330        2.8080646741
 H          6.5312326322        0.4812699958        3.7155317899
 H          8.8232597089        1.6874601127        2.5465436366
 H          8.0759652705        3.0241661717        1.6812059972
 H          7.4941314635        2.5645104576        3.2917775192
 H          6.9167927225        0.1455305707       -0.2303606997
 H          8.4568193805        0.0776085753        0.6383162193
 H          7.9376165906        1.5651556029       -0.1525459771
 H          6.0135236021        3.6908875745        2.1477938131
 H          3.9002438565        4.7311131672        1.6414238512
 H          2.0996657215        3.4329263947        0.4967836542
