78

C     -3.111205   -1.592570   -2.992343
C     -3.397180   -1.143794   -1.582842
C     -4.645140   -0.555409   -1.307596
C     -4.974208   -0.127605   -0.013342
N     -6.254329    0.471281    0.251000
C     -6.383204    1.909316    0.122754
C     -5.276636    2.697620   -0.284872
C     -5.355191    4.086845   -0.423117
C     -6.547530    4.737683   -0.156849
C     -7.652516    3.994078    0.245850
C     -7.582068    2.592930    0.387312
S     -9.080640    1.809080    0.913002
C     -8.634268    0.095416    0.942869
C     -9.668181   -0.790271    1.310099
C     -9.455032   -2.163615    1.378103
C     -8.201433   -2.668826    1.079151
C     -7.170451   -1.797486    0.714455
C     -7.353179   -0.393046    0.634776
C     -4.047251   -0.295897    1.019479
C     -2.810508   -0.889258    0.759176
C     -2.461766   -1.326325   -0.535970
C     -1.146281   -1.953397   -0.751623
C      0.031820   -1.288228   -0.467393
C      1.208269   -1.977377   -0.693469
C      2.527357   -1.374596   -0.444428
C      3.397836   -1.184544   -1.536955
C      4.651922   -0.593520   -1.375621
C      5.070372   -0.178127   -0.108183
N      6.359795    0.433111    0.068695
C      7.494032   -0.422436    0.357488
C      7.330841   -1.828739    0.446334
C      8.395768   -2.691822    0.722351
C      9.665094   -2.176198    0.919909
C      9.859895   -0.800782    0.839889
C      8.791667    0.076651    0.561822
S      9.219718    1.794101    0.499496
C      7.672036    2.568092    0.122621
C      7.714987    3.972008   -0.001483
C      6.571154    4.708487   -0.293631
C      5.367050    4.047598   -0.465383
C      5.315659    2.655547   -0.343789
C      6.461919    1.874331   -0.047304
C      4.223205   -0.372214    0.993003
C      2.963322   -0.980459    0.843299
C      2.117166   -1.181682    2.072848
N      1.224405   -3.233056   -1.185329
C      0.030960   -3.790117   -1.423895
N     -1.161874   -3.213942   -1.230758
H     -3.209262   -2.679626   -3.070583
H     -2.106607   -1.289162   -3.304028
H     -3.811183   -1.138512   -3.702335
H     -5.376902   -0.426003   -2.103077
H     -4.315933    2.241207   -0.509202
H     -4.481793    4.651108   -0.739568
H     -6.621936    5.816611   -0.260644
H     -8.583804    4.519043    0.452468
H    -10.658960   -0.406771    1.548347
H    -10.264312   -2.830297    1.662608
H     -8.015676   -3.738829    1.125986
H     -6.208666   -2.252209    0.489391
H     -4.295816    0.025325    2.027891
H     -2.118434   -1.029362    1.587897
H      0.033796   -0.269842   -0.100219
H      3.091228   -1.503894   -2.532312
H      5.303594   -0.457839   -2.234956
H      6.357795   -2.291435    0.299498
H      8.223814   -3.763589    0.780211
H     10.500743   -2.836391    1.134773
H     10.863488   -0.409087    0.997524
H      8.655259    4.504800    0.131184
H      6.624771    5.789705   -0.385721
H      4.463331    4.606201   -0.694709
H      4.343774    2.191205   -0.490041
H      4.565192   -0.053512    1.976228
H      1.659914   -2.176338    2.076007
H      1.335844   -0.417450    2.124193
H      2.720387   -1.110750    2.984637
H      0.030182   -4.803138   -1.811057
