  56
 
 N          8.9935627540        0.8336991770       -0.8233456913
 C          7.9020190718        0.5587443723       -0.5761518276
 C          6.5868554735        0.2165151164       -0.2673291069
 N          5.5635671317        0.8296815202       -0.8285539822
 C          4.3384250854        0.5346305990       -0.5695613017
 C          4.0641391118       -0.5734385954        0.4288746937
 N          5.0707805759       -1.1654007833        0.9708011315
 C          6.3219826547       -0.8513902701        0.7008024439
 C          7.3873217143       -1.5131104408        1.3087150847
 N          8.2749785548       -2.0542858111        1.8061671638
 C          2.6534979180       -0.7035249941        0.5335703974
 C          1.8012602640       -1.5293437939        1.2571651756
 C          0.4303950060       -1.3554953758        1.0910633979
 C         -0.1355561480       -0.3991260413        0.2527057517
 C         -1.5967322391       -0.2630388308        0.1922004472
 C         -2.3995177091       -1.3817315611       -0.0079637432
 C         -3.7875291750       -1.2634677754       -0.0657274482
 C         -4.6253522778       -2.4474014504       -0.3027566026
 C         -4.3325974738       -3.6611413160        0.3196756206
 C         -5.1267432245       -4.7714646488        0.1038455359
 C         -6.2197659517       -4.6927601136       -0.7451623738
 C         -6.5173321135       -3.4930754492       -1.3729323701
 C         -5.7305793779       -2.3786958084       -1.1512140855
 C         -4.3665789543       -0.0090385381        0.1029035522
 C         -3.5827002184        1.1187878463        0.3256695975
 C         -4.2050299689        2.4343076672        0.5323853254
 C         -3.6585014824        3.5798213199       -0.0459665546
 C         -4.2510006573        4.8140533843        0.1437630453
 C         -5.3913103948        4.9276147765        0.9235930232
 C         -5.9387485852        3.7968654480        1.5094772712
 C         -5.3542207172        2.5599696776        1.3128506671
 C         -2.1956647151        0.9828711377        0.3603769928
 C          0.7144323156        0.4430784970       -0.5193004385
 C          0.3462019808        1.4137341133       -1.4766552968
 C          1.3080487009        2.1480808119       -2.1442634342
 C          2.6779244057        1.9804638575       -1.9344674015
 C          3.0771786501        1.0137491447       -1.0214844793
 C          2.0902255332        0.2593818936       -0.3394944543
 H          2.1867708661       -2.2785367404        1.9305847831
 H         -0.2351305639       -1.9827630976        1.6667733198
 H         -1.9369860876       -2.3444902022       -0.1660314478
 H         -3.4925283826       -3.7256841692        0.9956242951
 H         -4.8943481719       -5.7028532274        0.5996805578
 H         -6.8363867588       -5.5626631201       -0.9174183985
 H         -7.3652608124       -3.4281706134       -2.0393580815
 H         -5.9574606037       -1.4518128969       -1.6574190382
 H         -5.4409318587        0.0894123777        0.0664213934
 H         -2.7778992088        3.4981226123       -0.6660426033
 H         -3.8230964018        5.6923936976       -0.3175431251
 H         -5.8506745892        5.8933881972        1.0752283554
 H         -6.8236440588        3.8814782674        2.1236430588
 H         -5.7752647516        1.6850337309        1.7863593767
 H         -1.5794324068        1.8433616951        0.5737941452
 H         -0.6971416606        1.5709187073       -1.7020862668
 H          0.9905943815        2.8851002006       -2.8677236741
 H          3.3998106486        2.5744213479       -2.4723726613
