97
 xtb: 6.7.1 (edcfbbe)
C           -8.40349497468883        2.82000672364709       -2.27860510870105
C           -7.38887841973918        2.02817847735027       -1.46107083685984
C           -6.57673937259152        2.93581592681930       -0.53795381804537
C           -5.49704470203927        2.19076166004519        0.24773101755512
C           -6.06705863551453        1.30337830931445        1.35329512378668
C           -4.96217923310121        0.53117718660439        2.08228324072558
N           -4.24011957671774       -0.33582312936503        1.17347044668470
C           -2.84226341481044       -0.35432859173325        1.20510997446719
C           -2.13896748157367       -0.09276131874793        2.31991644362736
C           -0.64789549237933       -0.03011927813988        2.37883414482082
C            0.05922543688914       -0.23842467418816        1.06003072439304
C            1.39646176234144       -0.11713697017198        1.01053138091475
C            2.29433536942990       -0.29265095413092       -0.17600607197061
C            3.23449494707282        0.87780784121607       -0.33741240614610
C            2.92572049881411        2.20059860520359       -0.56108004186740
C            3.95995886201681        3.13281771413603       -0.66114864480037
C            3.65213410082505        4.54928529139419       -0.93236471419291
C            2.92298838509588        4.87307424608088       -2.05279108473240
C            2.65694103315310        6.20695412151953       -2.38756493012529
C            3.12224884861016        7.22039324696028       -1.59759807772861
C            3.84852808121798        6.93634699716425       -0.42201472924928
C            4.31534447203290        7.96727753911415        0.42149427528119
C            4.99226759309886        7.68043104398342        1.57311633967311
C            5.22079761470040        6.34511077904045        1.93885705352167
C            4.78921213118041        5.32355426780350        1.13902606405430
C            4.11133541837445        5.58432638877359       -0.07161730668495
C            5.28513604083681        2.70970177973109       -0.55033791929569
C            5.59975679928799        1.38072336078655       -0.32901873707798
C            4.56899012792817        0.46062192289793       -0.21550361458879
C            4.58476741577587       -0.97266598621534        0.01687983074235
C            5.63432562287900       -1.85724316776028        0.20969684045621
C            5.34764400295947       -3.19544925135452        0.41379939174963
C            4.03445851948409       -3.66489372205787        0.41702892425380
C            3.77331336867020       -5.09775112443228        0.65071557326457
C            4.23767264963666       -5.68389376385408        1.80543673100923
C            3.99063625009979       -7.03375166277333        2.08636251836097
C            3.28161709747765       -7.80149675078878        1.20452879210211
C            2.80741335036508       -7.25105263489871       -0.00513313607380
C            2.10013729477710       -8.03513368496171       -0.94331180535076
C            1.67318516492629       -7.50120371924073       -2.12670499896182
C            1.94491366873469       -6.15769823667595       -2.42797105940567
C            2.62094012009529       -5.36927042129641       -1.53712575100499
C            3.05789812294315       -5.88258697784478       -0.29628357146210
C            2.97903246465245       -2.76920573774452        0.23063323765407
C            3.26004043890981       -1.43657318698890        0.03162649691379
C           -0.76069228140319       -0.57004850638228       -0.07173020010013
C           -2.10661927639849       -0.63599194234568       -0.01387816863097
S           -2.99709299956576       -0.97326062523071       -1.49985523146414
C           -4.46772911554590       -1.68449318182890       -0.82996294239573
C           -5.16734977649677       -2.59893156619994       -1.60014017373830
C           -6.35845192856572       -3.12819943058472       -1.13949711837227
C           -6.83207570443174       -2.74642264805337        0.10533406505953
C           -6.13042595207880       -1.84033326910536        0.87710973774969
C           -4.93588473178790       -1.27454558214862        0.42251630841585
H           -9.09654112310121        3.32090973242622       -1.63679534176536
H           -7.89445021414384        3.54794663252277       -2.90797955866429
H           -8.96035336288464        2.14173021980445       -2.94308999773556
H           -7.90969964229825        1.26133948876068       -0.88437809039948
H           -6.70015525372624        1.49047189464576       -2.14565755021926
H           -6.09156589191291        3.69515228124913       -1.15635528232044
H           -7.24703412840569        3.42875611977348        0.14864931495443
H           -4.81297445146678        2.91170179182244        0.68876000166455
H           -4.90853929262774        1.57020864962998       -0.45076042420993
H           -6.77999421635623        0.59569686008929        0.91836220953068
H           -6.58747660743918        1.91356034646122        2.07712378554184
H           -5.37794228120345       -0.03267502457028        2.92411674596624
H           -4.24158786879502        1.24715061608364        2.47010524478032
H           -2.63571469724491        0.08348018855953        3.25628500838298
H           -0.34860162470119        0.93209533793954        2.80257478547744
H           -0.29873704964987       -0.79365673625190        3.09307425344969
H            1.93085491480514        0.12881093500933        1.92342833455052
H            1.71488053191052       -0.43895953618878       -1.08678018287054
H            1.89962571259519        2.52700803094721       -0.63511954065801
H            2.56408853559615        4.09164987984159       -2.69300541107775
H            2.08147020903234        6.43357068250067       -3.26686933016129
H            2.92896288127247        8.25954650860020       -1.83963367672389
H            4.11766485331538        8.99528278322326        0.15499939300069
H            5.35033285697147        8.47484357742350        2.22397765349496
H            5.74674322230693        6.12661987374510        2.86655624649518
H            4.96242615204399        4.29849222988129        1.43543294534768
H            6.07848817797155        3.44366343406333       -0.66363630086319
H            6.63562656742731        1.07452200905022       -0.26582265250599
H            6.66571638746455       -1.50973228143060        0.17498144459173
H            6.16398889139242       -3.89905256734654        0.52919639744709
H            4.83527051498586       -5.09047266637666        2.48668257994363
H            4.40302885461230       -7.45876458818170        2.98606762035137
H            3.06992263144049       -8.83125958064878        1.42713419105888
H            1.84758731791788       -9.05203519156525       -0.66678379472055
H            1.03178542651012       -8.08210242654158       -2.78023301939589
H            1.53460400614523       -5.73197901732548       -3.33394060595662
H            2.81039082069237       -4.33480868761221       -1.77735597631012
H            1.96611581446002       -3.11879160993034        0.26307654801362
H           -0.27567986349207       -0.76731675189178       -1.02119768760398
H           -4.76327001038564       -2.88496141081181       -2.57085730994595
H           -6.89642637975159       -3.84271663854855       -1.75069928675400
H           -7.74681290923720       -3.17066888415254        0.47681492525297
H           -6.50610238326880       -1.58005958495709        1.84315484852138
