101

C     -9.790570    3.834492    3.097242
C    -10.083000    3.653424    1.747895
C     -9.342051    2.744646    0.986644
C     -8.295684    2.001473    1.559505
C     -7.516039    1.043947    0.755360
C     -8.155246    0.052542   -0.011029
C     -7.435373   -0.870609   -0.790236
C     -8.129486   -1.900223   -1.581192
C     -7.798541   -3.259597   -1.449043
C     -8.458115   -4.238314   -2.198085
C     -9.459386   -3.873573   -3.094170
C     -9.802239   -2.532018   -3.241328
C     -9.142820   -1.554624   -2.490611
C     -6.035221   -0.784364   -0.788902
C     -5.361056    0.187888   -0.033086
C     -3.880310    0.255534   -0.044008
C     -3.218303    1.085025   -1.000936
C     -3.927100    1.864944   -1.953972
C     -3.284473    2.674281   -2.890035
C     -1.904687    2.730982   -2.903468
C     -1.179976    1.977069   -1.981436
C     -1.803943    1.141766   -1.016095
C     -1.057478    0.367001   -0.075908
C      0.423587    0.415613   -0.098048
C      1.122515    1.357727    0.671751
C      2.519689    1.389443    0.660586
C      3.246654    0.472751   -0.108842
C      4.712193    0.524820   -0.090936
N      5.387170    1.599775   -0.443185
C      6.714495    1.262228   -0.375609
C      7.838280    2.058094   -0.704743
C      7.656587    3.349083   -1.234938
C      8.761440    4.125086   -1.574800
C     10.049954    3.624072   -1.384031
C     10.252693    2.342298   -0.844291
C     11.540429    1.841358   -0.626646
C     11.723502    0.581047   -0.055704
C     10.624517   -0.209882    0.306162
C     10.812979   -1.455635    0.917569
C      9.721658   -2.222277    1.315526
C      8.424032   -1.770009    1.078975
C      8.190811   -0.545423    0.417024
C      9.310118    0.261741    0.066447
C      9.135808    1.543799   -0.501007
C      6.885834   -0.037002    0.107040
N      5.580667   -0.530410    0.201593
C      5.188736   -1.872156    0.454087
C      5.751579   -2.907590   -0.303879
C      5.337675   -4.223054   -0.090690
C      4.364598   -4.503985    0.868995
C      3.798921   -3.471270    1.616891
C      4.205533   -2.152237    1.410680
C      2.552209   -0.446793   -0.904936
C      1.155007   -0.480809   -0.892366
C     -1.719920   -0.461001    0.882641
C     -1.011132   -1.244858    1.832907
C     -1.652554   -2.054158    2.769407
C     -3.032457   -2.106724    2.786265
C     -3.757027   -1.349866    1.866426
C     -3.133796   -0.515995    0.899291
C     -6.113723    1.093246    0.731496
C     -8.017146    2.201138    2.922716
C     -8.757609    3.109176    3.685637
H    -10.366390    4.540732    3.689230
H    -10.886145    4.220454    1.283951
H     -9.581087    2.627994   -0.069019
H     -9.242625   -0.016888    0.018071
H     -7.025700   -3.568458   -0.747820
H     -8.190519   -5.285482   -2.077304
H     -9.971985   -4.635187   -3.675736
H    -10.581216   -2.242759   -3.941477
H     -9.418470   -0.511260   -2.630444
H     -5.452544   -1.478638   -1.393687
H     -5.015534    1.851264   -1.980662
H     -3.866184    3.253926   -3.601223
H     -1.385363    3.355938   -3.624765
H     -0.094546    2.053061   -2.029242
H      0.577642    2.074562    1.283006
H      3.042765    2.135511    1.256213
H      6.652902    3.742031   -1.386569
H      8.618309    5.120650   -1.986833
H     10.899043    4.249208   -1.652036
H     12.414638    2.434829   -0.884991
H     12.737793    0.227713    0.116904
H     11.815933   -1.828438    1.113423
H      9.880439   -3.170832    1.822040
H      7.609208   -2.381508    1.450848
H      6.492307   -2.703835   -1.075477
H      5.768264   -5.029628   -0.679557
H      4.041637   -5.530343    1.029679
H      3.038229   -3.693866    2.360991
H      3.760177   -1.364870    2.014421
H      3.089600   -1.145690   -1.541836
H      0.633616   -1.210970   -1.508812
H      0.077215   -1.233619    1.854934
H     -1.070367   -2.636379    3.478053
H     -3.551942   -2.731307    3.507484
H     -4.842390   -1.421725    1.916912
H     -5.591662    1.857205    1.307183
H     -7.221328    1.637581    3.406450
H     -8.527129    3.245968    4.739126
