108

O     -0.000501    4.715570    0.014167
C     -0.000303    3.487306    0.012543
C     -1.297902    2.764914    0.020405
C     -1.466650    1.565507    0.723640
C     -2.705554    0.920217    0.710799
C     -3.788097    1.475553    0.010557
N     -5.058741    0.809227    0.000975
C     -5.370354   -0.101480   -1.069741
C     -4.456046   -0.337093   -2.122550
C     -4.737711   -1.218724   -3.169025
C     -5.946025   -1.894664   -3.193838
C     -6.865007   -1.685481   -2.171328
C     -6.593902   -0.793623   -1.101329
C     -7.658562   -0.615548    0.014873
C     -8.926111   -0.017526   -0.667172
C     -8.812146    1.247738   -1.306731
C     -9.894872    1.860689   -1.935977
C    -11.125425    1.226436   -1.946218
C    -11.261145   -0.014473   -1.326700
C    -10.174968   -0.644133   -0.686952
S    -10.530612   -2.209956    0.045693
C     -9.002362   -2.727683    0.761226
C     -9.034076   -3.972733    1.419627
C     -7.899839   -4.507323    2.028108
C     -6.709465   -3.801517    1.987059
C     -6.665447   -2.567818    1.339713
C     -7.809605   -2.001454    0.712079
C     -7.231102    0.391355    1.117440
C     -8.120270    0.647888    2.193573
C     -7.795653    1.543772    3.206933
C     -6.579379    2.204412    3.164872
C     -5.692666    1.961895    2.112623
C     -5.990507    1.051633    1.071790
C     -3.619689    2.690575   -0.670019
C     -2.381028    3.334969   -0.660307
C      1.296739    2.762783    0.001560
C      1.455076    1.547256   -0.676021
C      2.694248    0.902274   -0.669114
C      3.788099    1.473756   -0.000101
N      5.059011    0.807969    0.002767
C      5.386645   -0.082701    1.085382
C      4.488796   -0.297023    2.156757
C      4.787618   -1.156513    3.216717
C      5.997058   -1.830917    3.236914
C      6.899826   -1.642962    2.195893
C      6.610810   -0.773768    1.111739
C      7.658169   -0.617314   -0.024463
C      7.798682   -2.016986   -0.695761
C      6.644579   -2.596709   -1.291846
C      6.677638   -3.846122   -1.909551
C      7.866498   -4.554685   -1.950958
C      9.011233   -4.005848   -1.375489
C      8.990778   -2.744211   -0.748234
S     10.532239   -2.207048   -0.076272
C     10.185521   -0.631193    0.638245
C     11.280351    0.009365    1.251905
C     11.152269    1.259847    1.853531
C      9.921062    1.893170    1.851280
C      8.829803    1.269327    1.247857
C      8.935749   -0.006289    0.627273
C      7.214293    0.368885   -1.138675
C      8.087989    0.606350   -2.231700
C      7.751207    1.489300   -3.252157
C      6.537233    2.153564   -3.201598
C      5.664105    1.927327   -2.134552
C      5.975457    1.032212   -1.084964
C      3.630025    2.703458    0.656216
C      2.390905    3.347306    0.651994
H     -0.653485    1.130084    1.298223
H     -2.837486   -0.013017    1.253573
H     -3.493350    0.166214   -2.149831
H     -4.009382   -1.373308   -3.960392
H     -6.175978   -2.583006   -4.001955
H     -7.809046   -2.227649   -2.205973
H     -7.857305    1.772770   -1.314331
H     -9.771109    2.829188   -2.413312
H    -11.979391    1.690915   -2.432342
H    -12.238375   -0.494462   -1.345953
H     -9.959008   -4.545923    1.463660
H     -7.950692   -5.469440    2.529540
H     -5.814901   -4.204919    2.454526
H     -5.714739   -2.035546    1.324556
H     -9.082797    0.140332    2.241259
H     -8.492303    1.724185    4.021034
H     -6.313289    2.911210    3.946674
H     -4.754399    2.510766    2.125478
H     -4.457552    3.134118   -1.202670
H     -2.262744    4.282477   -1.183113
H      0.633079    1.097932   -1.226972
H      2.817755   -0.043255   -1.192445
H      3.526644    0.207351    2.189358
H      4.072124   -1.294474    4.022738
H      6.239964   -2.502220    4.056050
H      7.844879   -2.183902    2.227023
H      5.694509   -2.063550   -1.274541
H      5.775781   -4.259128   -2.353364
H      7.908373   -5.530398   -2.427702
H      9.935721   -4.579741   -1.420419
H     12.258279   -0.469496    1.264689
H     12.012758    1.732265    2.319516
H      9.803757    2.869363    2.314684
H      7.874089    1.792832    1.261041
H      9.049321    0.097330   -2.285231
H      8.436738    1.658098   -4.078081
H      6.262858    2.851235   -3.988342
H      4.726541    2.477384   -2.142795
H      4.476142    3.159124    1.165291
H      2.280036    4.305973    1.155469
