  110
 
 C          9.7486661688       -0.6238365367       -1.2575171200
 C          9.0574596391        0.6407712296       -1.7769181766
 C          8.9016020780        0.5061599517       -3.2991064126
 C          9.9579519312        1.8420540187       -1.4514428325
 C          7.6877200408        0.8597125197       -1.1481027618
 C          6.9401734376        1.9831161892       -1.5282773559
 C          5.6972899737        2.2715157341       -1.0026015450
 C          5.1756047429        1.4102191179       -0.0487315088
 C          5.8931241955        0.2549405473        0.3280993410
 C          7.1427117865       -0.0102772541       -0.2180201168
 C          5.0682123431       -0.4442159302        1.2745688514
 C          5.2291439119       -1.6224123834        1.9871181311
 C          4.2363877151       -2.0526362011        2.8576353836
 C          4.4289574373       -3.3626612727        3.6114391296
 C          3.2442178797       -3.7096882618        4.5184574546
 C          5.6856907573       -3.2596064495        4.4886136124
 C          4.5977912418       -4.5029985535        2.5956697998
 C          3.0954345987       -1.2586012636        3.0094421717
 C          2.9087940589       -0.0780016651        2.3135060997
 C          3.8921044837        0.3243579493        1.4246052548
 N          3.9693630718        1.4458285193        0.6224875577
 C          2.9896645201        2.4450185023        0.4988962318
 C          3.3662981357        3.7907857100        0.6072085362
 C          2.4467126237        4.8091109576        0.4619222130
 C          1.1239149207        4.4629858257        0.2265644150
 N          0.0255615092        5.2630069517        0.0422340586
 C         -1.0800474633        4.4750871554       -0.1508103821
 C         -2.3993975124        4.8358134256       -0.3835688264
 C         -3.3280808584        3.8275845782       -0.5408597476
 C         -2.9639538784        2.4773673340       -0.4463047154
 N         -3.9524371165        1.4884309878       -0.5819855601
 C         -5.1605434825        1.4574539132        0.0865894274
 C         -5.6762162315        2.3120737386        1.0471125649
 C         -6.9252950462        2.0340807212        1.5719510609
 C         -7.6793398802        0.9240813015        1.1794780611
 C         -9.0603399080        0.6290746658        1.7515438711
 C         -9.0308193672       -0.7333642271        2.4604511538
 C        -10.0809839782        0.5944739982        0.6037753750
 C         -9.5242253283        1.6803050541        2.7647543293
 C         -7.1378339573        0.0576715025        0.2385309772
 C         -5.8883583789        0.3118036828       -0.3050747037
 C         -5.0675287929       -0.3843104839       -1.2579539836
 C         -5.2383881245       -1.5518627170       -1.9850927659
 C         -4.2482574608       -1.9809269224       -2.8594863803
 C         -4.4523766992       -3.2788725471       -3.6308734807
 C         -3.2718818103       -3.6226464127       -4.5446449936
 C         -5.7093997190       -3.1541036976       -4.5048092651
 C         -4.6286627434       -4.4314920115       -2.6303866952
 C         -3.0990696724       -1.1968326282       -2.9982320609
 C         -2.9024072024       -0.0268215184       -2.2871584688
 C         -3.8841112997        0.3749989845       -1.3963057295
 C         -1.6445378753        2.1131129287       -0.2181023467
 C         -0.6932757830        3.1147821815       -0.0853906510
 C          0.7246219424        3.1070207151        0.1471463347
 C          1.6667258430        2.0952750587        0.2684772701
 H         10.7220443009       -0.7265040494       -1.7336642013
 H          9.1658152887       -1.5121732048       -1.4908773850
 H          9.9045872669       -0.5709911057       -0.1822148843
 H          8.2482389882       -0.3311416350       -3.5374323436
 H          9.8711395199        0.3306739372       -3.7612613358
 H          8.4748436130        1.4050104366       -3.7356672666
 H          9.5501302899        2.7646660331       -1.8553470177
 H         10.0567629192        1.9565461388       -0.3734923557
 H         10.9492242492        1.6936225931       -1.8753072774
 H          7.3418761756        2.6599965786       -2.2673013389
 H          5.1479461670        3.1392119463       -1.3366716930
 H          7.6638840733       -0.8993924338        0.0961995918
 H          6.1353475921       -2.1930332899        1.8522785220
 H          3.1003746809       -2.9507353502        5.2843506208
 H          3.4371408697       -4.6573789675        5.0179786283
 H          2.3273961510       -3.8146748647        3.9424803154
 H          6.5735750293       -3.0791731533        3.8887706664
 H          5.8322275094       -4.1833722542        5.0450026733
 H          5.5825671663       -2.4410507569        5.1986101127
 H          3.7206834732       -4.5678963128        1.9543418982
 H          4.7185466304       -5.4527483655        3.1131485333
 H          5.4685607441       -4.3462873116        1.9649181122
 H          2.3178247510       -1.5596531273        3.6921496306
 H          2.0185303123        0.5127583441        2.4715675302
 H          4.3991659587        4.0249634417        0.8161029818
 H          2.7498276095        5.8424853950        0.5374078984
 H          0.0301732147        6.2691366761        0.0474627263
 H         -2.6929851795        5.8726688030       -0.4481886224
 H         -4.3584697257        4.0734775286       -0.7484436362
 H         -5.1192623013        3.1709967371        1.3911529198
 H         -7.3128684640        2.7117383726        2.3148274837
 H         -8.7673683143       -1.5324308616        1.7727873395
 H        -10.0076262987       -0.9572763542        2.8848148635
 H         -8.2982857944       -0.7223496638        3.2654740221
 H        -10.0880393229        1.5475490176        0.0780024079
 H         -9.8448942062       -0.1871163564       -0.1131796165
 H        -11.0794754549        0.4078423173        0.9943433176
 H         -9.5846985694        2.6654710865        2.3074692679
 H        -10.5158517354        1.4179530315        3.1291128263
 H         -8.8540213359        1.7234528264        3.6204366374
 H         -7.6754843770       -0.8225880217       -0.0796667961
 H         -6.1502646394       -2.1154751762       -1.8589219699
 H         -3.4742003047       -4.5605347994       -5.0587224568
 H         -2.3554189160       -3.7452228650       -3.9716200153
 H         -3.1219321539       -2.8530439005       -5.2986385493
 H         -6.5952181350       -2.9745922839       -3.9016513896
 H         -5.6005753269       -2.3271713755       -5.2041382215
 H         -5.8639949412       -4.0692408201       -5.0731531989
 H         -4.7589729554       -5.3729992967       -3.1604618330
 H         -5.4964685000       -4.2757356636       -1.9952655506
 H         -3.7506148639       -4.5127091594       -1.9922186600
 H         -2.3225677834       -1.4972211341       -3.6824807566
 H         -2.0056088500        0.5564149519       -2.4356309170
 H         -1.3708582954        1.0728674077       -0.1331691773
 H          1.3834577829        1.0585096001        0.1730788583
