  108
 
 C         -3.1362023691        6.6710339222        1.1302553788
 C         -1.8309989805        5.8540362531        1.1041849521
 C         -0.6286221882        6.7615817347        1.4243520432
 C         -1.6472854833        5.2774409212       -0.2855996264
 C         -1.5587530104        6.1296891462       -1.3774029869
 C         -1.3932793491        5.6556663484       -2.6658510985
 C         -1.3126394962        4.2904630997       -2.8832755265
 C         -1.3954575093        3.4209344347       -1.8183644454
 C         -1.5611348785        3.8975366662       -0.5124349141
 N         -1.6367341894        3.0008842756        0.5340403198
 C         -1.5546882285        1.6046270441        0.2538867241
 C         -0.3225005173        0.9903485917        0.2117785072
 C         -0.2126677447       -0.3890819716       -0.0614174431
 C          1.0344036914       -1.0835261043       -0.1211550653
 C          2.2957681708       -0.4730560709       -0.0081560405
 C          3.4268186755       -1.2639704114       -0.0953094203
 C          4.7836559400       -0.7658930690       -0.0056267036
 C          5.8464488052       -1.6818117776        0.0125025331
 C          7.1515215398       -1.2588413209        0.0958180614
 C          7.4644031733        0.1011673803        0.1542587937
 C          8.8560028254        0.5545689393        0.2334047864
 C          9.7882530982       -0.1348788099        1.0085117760
 C         11.0998316920        0.2933199273        1.0828074560
 C         11.5085847967        1.4155106875        0.3812631685
 C         10.5932337817        2.1080095906       -0.3940145635
 C          9.2800736984        1.6842496894       -0.4660504946
 C          6.4094100700        1.0158831855        0.1310393415
 C          5.1004827770        0.5970932139        0.0575328152
 N          3.2800022983       -2.6092430993       -0.2734392001
 C          2.0807956639       -3.1518055789       -0.3747763486
 C          1.9736329591       -4.5993491352       -0.5647632452
 C          0.7254809719       -5.2169276659       -0.5792915647
 C          0.6283730398       -6.5833372943       -0.7560995381
 C          1.7738685881       -7.3463580591       -0.9204129491
 C          3.0189572019       -6.7378526171       -0.9074109677
 C          3.1205894539       -5.3715730586       -0.7303259600
 N          0.9869989814       -2.4348129598       -0.3096768103
 C         -1.4122496733       -1.1021636694       -0.2847133078
 C         -2.6330034346       -0.4718672372       -0.2405370622
 N         -3.8259740331       -1.2179004944       -0.4760218334
 C         -4.3411531378       -1.2645971907       -1.7551433499
 C         -3.6767387687       -0.5971439635       -2.7912339472
 C         -4.1674174102       -0.6223881237       -4.0777705209
 C         -5.3317211071       -1.3180355644       -4.3576436163
 C         -5.9874208797       -1.9831725487       -3.3379458972
 C         -5.5176214986       -1.9736172804       -2.0320646086
 C         -6.2751872463       -2.7255118085       -0.9559417216
 C         -7.7041263878       -2.1576851679       -0.8688358336
 C         -6.3173864845       -4.2173832629       -1.3360496807
 C         -5.6153065131       -2.5894781701        0.4017839963
 C         -6.1821937893       -3.2087716633        1.5068958906
 C         -5.6224590539       -3.1136268501        2.7677610599
 C         -4.4609737175       -2.3800100618        2.9429662520
 C         -3.8750271081       -1.7564038449        1.8638994181
 C         -4.4377027267       -1.8525343083        0.5854032339
 C         -2.7328734652        0.8937776871        0.0294527597
 C         -1.8145297574        3.4102354231        1.8400865233
 C         -1.8908474967        2.4525390254        2.8584024506
 C         -2.0677379566        2.8292006896        4.1713337563
 C         -2.1696871828        4.1716871447        4.4951944229
 C         -2.0906692765        5.1203639654        3.4922343117
 C         -1.9146342777        4.7703968630        2.1608016279
 H         -3.9820053869        6.0249565769        0.9025107653
 H         -3.1078250534        7.4707575389        0.3955883157
 H         -3.2967573672        7.1141804268        2.1089961937
 H          0.2904401800        6.1788904339        1.4057116178
 H         -0.5422099791        7.5619486155        0.6948285294
 H         -0.7316326718        7.2078580591        2.4094716779
 H         -1.6198979615        7.1965725506       -1.2249365767
 H         -1.3281944816        6.3467658333       -3.4921771765
 H         -1.1843706596        3.9022814223       -3.8824267915
 H         -1.3295163907        2.3579075282       -1.9888731781
 H          0.5545892825        1.5890830058        0.3990134384
 H          2.3763522539        0.5897332873        0.1410746911
 H          5.6152351960       -2.7348595849       -0.0397250790
 H          7.9495861142       -1.9874512048        0.0901827578
 H          9.4735700670       -1.0001524316        1.5738598454
 H         11.8078729926       -0.2490213542        1.6931722346
 H         12.5346207051        1.7483156508        0.4381328282
 H         10.9066174213        2.9815439480       -0.9479084476
 H          8.5774606933        2.2189685249       -1.0888065441
 H          6.6242448085        2.0732455140        0.1943389718
 H          4.3187171788        1.3413525443        0.0427223055
 H         -0.1573829993       -4.6103714804       -0.4468526656
 H         -0.3419319948       -7.0584674127       -0.7654999228
 H          1.6960284107       -8.4149780779       -1.0583634485
 H          3.9113114999       -7.3329815367       -1.0360526516
 H          4.0827589306       -4.8829586284       -0.7201829760
 H         -1.3551251903       -2.1577415195       -0.4973179312
 H         -2.7664806972       -0.0603660584       -2.5760120660
 H         -3.6403390161       -0.1004085643       -4.8620560059
 H         -5.7255821554       -1.3452773382       -5.3620449894
 H         -6.8911859811       -2.5243687806       -3.5736606549
 H         -8.2170156189       -2.2502272461       -1.8219660168
 H         -7.6679650528       -1.1038898981       -0.5989045774
 H         -8.2856639581       -2.6844109175       -0.1175381892
 H         -6.8654358232       -4.7908714886       -0.5937309812
 H         -6.7991602308       -4.3580492035       -2.2995719796
 H         -5.3050493409       -4.6122650393       -1.3971400608
 H         -7.0876715923       -3.7841648130        1.3873449592
 H         -6.0897862926       -3.6079431991        3.6055903196
 H         -4.0107123781       -2.2941072596        3.9203410151
 H         -2.9684622587       -1.1884929609        2.0009506235
 H         -3.6918955993        1.3852532156        0.0638282096
 H         -1.8067638658        1.4067758335        2.6081750339
 H         -2.1247386353        2.0748181126        4.9414359898
 H         -2.3077892984        4.4789145177        5.5204779605
 H         -2.1686832537        6.1627003633        3.7618125649
