  43
 
 C         -2.3377697147        3.6607762492        0.1512712962
 C         -0.9502464924        3.6884002948        0.1126263950
 C         -0.2378244533        2.5030690693        0.0619154203
 C         -0.8865888650        1.2771181676        0.0473926118
 C         -2.2871361837        1.2549793162        0.0844938957
 C         -3.0036133501        2.4534525278        0.1371151167
 N         -2.9584151694        0.0575228912        0.0673024343
 C         -2.3343560585       -1.1636282162        0.0041890642
 C         -3.0967239235       -2.3343340243       -0.0219309913
 C         -2.4779189439       -3.5649107320       -0.0848108027
 C         -1.0923296279       -3.6437980843       -0.1233689001
 C         -0.3346102070       -2.4861581128       -0.0975427056
 C         -0.9356382324       -1.2376038910       -0.0342322962
 C         -0.0784624502        0.0037783539       -0.0038601616
 C          0.8977076745       -0.0540895997        1.1616190767
 C          0.6263014743       -0.0968427702        2.4919945991
 C          1.6947800080       -0.1485866672        3.4085870950
 C          3.0271711595       -0.1559959831        2.9482203110
 C          3.3275396817       -0.1149994782        1.6183378565
 C          2.2602558033       -0.0622561206        0.6659691361
 C          2.2475399050       -0.0164985543       -0.7186993459
 C          3.2970720013       -0.0054595240       -1.6919752858
 C          2.9720205274        0.0390689409       -3.0160315659
 C          1.6315282865        0.0757313597       -3.4503087202
 C          0.5801356967        0.0674604814       -2.5126221554
 C          0.8762132642        0.0231604891       -1.1876128189
 H         -2.8979162341        4.5828631572        0.1912826471
 H         -0.4257211754        4.6315984672        0.1226521304
 H          0.8417113544        2.5212753374        0.0326343843
 H         -4.0835542411        2.4218768296        0.1656780972
 H         -3.9689780716        0.0764691558        0.0925540559
 H         -4.1747107050       -2.2629230587        0.0078228377
 H         -3.0732941874       -4.4653226669       -0.1045965002
 H         -0.6046693020       -4.6053670872       -0.1727230802
 H          0.7435568582       -2.5439111920       -0.1263888390
 H         -0.3922148224       -0.0921846933        2.8560119113
 H          1.4929466790       -0.1816019387        4.4676918574
 H          3.8242130159       -0.1956960003        3.6785944516
 H          4.3500786806       -0.1213170587        1.2712486377
 H          4.3258546517       -0.0334784601       -1.3650164201
 H          3.7554010429        0.0467621722       -3.7620537710
 H          1.4100964936        0.1099849550       -4.5054575557
 H         -0.4450392241        0.0963142563       -2.8562870514
