  66
 
 C          1.7249426689       -3.8623316032        2.2622845559
 C          1.2287786937       -2.7073346841        2.8440364398
 C          1.1156875536       -1.5450119486        2.1015240409
 C          1.5186984163       -1.5253507980        0.7711234311
 P          1.2461131334       -0.1045235810       -0.3283061267
 C          2.9332685806        0.1140278436       -1.0577269596
 C          4.1168609691       -0.4234157890       -0.5657450415
 C          5.3197021617       -0.1349140766       -1.1863749291
 C          5.3554343896        0.6919833583       -2.2973056356
 C          4.1800874450        1.2326815214       -2.7933236309
 C          2.9777276346        0.9402864614       -2.1774399833
 C          1.3491904745        1.3448568700        0.7827982678
 C          2.2974899383        1.4176717600        1.7956781433
 C          2.3693173091        2.5297618224        2.6140208696
 C          1.4987487948        3.5891333682        2.4123684762
 C          0.5764336426        3.5403354310        1.3834801221
 C          0.4876270412        2.4243257495        0.5542729295
 C         -0.4818044325        2.4250611487       -0.5551210980
 C         -0.5686694155        3.5407946544       -1.3849143318
 C         -1.4921159200        3.5914159226       -2.4127096449
 C         -2.3655821866        2.5341287618       -2.6128237741
 C         -2.2953528384        1.4221573392       -1.7941995710
 C         -1.3461283517        1.3475261309       -0.7823062997
 P         -1.2462874559       -0.1014287156        0.3296855987
 C         -2.9335854409        0.1215262655        1.0574090265
 C         -4.1178802905       -0.4137928337        0.5648633493
 C         -5.3208850698       -0.1203783047        1.1828920800
 C         -5.3560126821        0.7091618543        2.2918552846
 C         -4.1798681450        1.2473230450        2.7887399345
 C         -2.9774026935        0.9501527540        2.1753939123
 C         -1.5210331539       -1.5223120453       -0.7691254400
 C         -1.9983614495       -2.6926471848       -0.1831306942
 C         -2.1089557555       -3.8530666891       -0.9254163273
 C         -1.7301682474       -3.8599146568       -2.2587791521
 C         -1.2332325931       -2.7057271149       -2.8414703867
 C         -1.1186830946       -1.5430800316       -2.0996984934
 C          1.9950471979       -2.6965554527        0.1860225082
 C          2.1042917051       -3.8566165650        0.9290742254
 H          1.8099198407       -4.7683625284        2.8448589462
 H          0.9220085719       -2.7128635570        3.8805677428
 H          0.7179896636       -0.6475907868        2.5567153404
 H          4.1012849320       -1.0727826612        0.2987563790
 H          6.2361478133       -0.5572303143       -0.7983140268
 H          6.2982122750        0.9128015411       -2.7768497478
 H          4.2023830269        1.8771234168       -3.6608640932
 H          2.0512620464        1.3542288729       -2.5584879708
 H          2.9810483258        0.5925084708        1.9407053461
 H          3.1026591048        2.5710716529        3.4064201939
 H          1.5448240341        4.4584135282        3.0525252595
 H         -0.1007104565        4.3683018248        1.2260278715
 H          0.1106551683        4.3672064480       -1.2286579856
 H         -1.5369254196        4.4605814804       -3.0531148759
 H         -3.1000079314        2.5770273592       -3.4041406467
 H         -2.9810720544        0.5985717304       -1.9380289269
 H         -4.1027315023       -1.0652257805       -0.2981004500
 H         -6.2379313922       -0.5408541446        0.7942497217
 H         -6.2988993010        0.9340071990        2.7693064016
 H         -4.2016659655        1.8936005682        3.6549199485
 H         -2.0503580588        1.3622723290        2.5569997972
 H         -2.2803783027       -2.6821754823        0.8625225520
 H         -2.4847628627       -4.7552711634       -0.4638251926
 H         -1.8160819982       -4.7662455856       -2.8407477912
 H         -0.9269399347       -2.7121764673       -3.8781350904
 H         -0.7202983713       -0.6463078135       -2.5555618075
 H          2.2774104242       -2.6871154725       -0.8595444897
 H          2.4795207902       -4.7594266520        0.4681909192
