  89
 
 C         -7.2557719384        5.3534582799       -0.8608257019
 C         -5.9553288348        4.9634347157       -1.1487568376
 C         -5.5317498532        3.6841742155       -0.8510715172
 C         -6.4083645894        2.7721340165       -0.2593909668
 C         -5.9654291676        1.4188733770        0.0582503212
 N         -6.8658956794        0.5702242257        0.5955505283
 C         -6.4165607159       -0.6707681972        0.8746892015
 C         -7.3593144800       -1.6242394549        1.4494004639
 C         -8.6807268068       -1.2479039912        1.6975421962
 C         -9.5719379724       -2.1517263926        2.2411702919
 C         -9.1601825547       -3.4407401718        2.5453997030
 C         -7.8484606111       -3.8228351955        2.3013305059
 C         -6.9528792931       -2.9241193533        1.7585133324
 N         -5.1831861882       -1.0576044400        0.6604999501
 C         -4.3171522686       -0.1679152849        0.1145393444
 C         -2.9726019710       -0.5539837153       -0.1313763887
 C         -2.5180205243       -1.8567206525        0.1737134079
 C         -1.2157008370       -2.2097180286       -0.0603110991
 C         -0.3099590061       -1.2943498522       -0.6101371970
 N          1.0271863441       -1.6832446907       -0.7966806335
 C          1.4475421355       -2.7620442599       -1.5495377412
 C          0.6942710961       -3.6720519766       -2.2780800664
 C          1.3721829155       -4.6623889265       -2.9663707593
 C          2.7625359634       -4.7446849092       -2.9382971696
 C          3.5192752238       -3.8281882800       -2.2290614281
 C          2.8613537286       -2.8248983178       -1.5328134929
 C          3.3025526266       -1.7245973820       -0.7180892819
 C          4.5486247005       -1.2706435493       -0.3291478808
 C          4.6205067705       -0.1538609051        0.5019025767
 N          5.8657057658        0.3270060818        0.9118012460
 C          6.8955823905       -0.4365969510        1.4285115972
 C          6.9328604799       -1.7954570818        1.7134495104
 C          8.0917504362       -2.3071348412        2.2688492353
 C          9.1858042026       -1.4918791710        2.5463495397
 C          9.1435855054       -0.1318251170        2.2924136200
 C          7.9925155774        0.4028160324        1.7343828581
 C          7.5960922020        1.7398869180        1.3746189268
 C          8.2375278752        2.9682649478        1.4181582330
 C          7.5601567195        4.0847189521        0.9589907317
 C          6.2701622544        3.9801075566        0.4451957614
 C          5.6113594644        2.7651283756        0.3903113494
 C          6.2748907315        1.6464659341        0.8774119370
 C          3.4508642215        0.4849379950        0.9480020607
 C          2.2041612669        0.0420016888        0.5704153257
 C          2.1278093039       -1.0540835535       -0.2845471121
 C         -0.7435555141        0.0067911741       -0.9449554430
 C          0.1584331977        0.9747390696       -1.5955212301
 C          0.2278988497        2.2869926494       -1.1330258472
 C          1.0685053131        3.2029892649       -1.7377837353
 C          1.8503818138        2.8239797943       -2.8167470971
 C          1.7773216747        1.5259042680       -3.2940444674
 C          0.9363642514        0.6084832647       -2.6913069852
 C         -2.0528705829        0.3550359617       -0.6908817610
 N         -4.7228053201        1.0892991030       -0.1938686900
 C         -7.7152563496        3.1718519391        0.0260127384
 C         -8.1327203224        4.4535088427       -0.2737469229
 H         -7.5845074929        6.3553193937       -1.0945747743
 H         -5.2713508028        5.6627718461       -1.6075766858
 H         -4.5238002682        3.3660191128       -1.0705378018
 H         -8.9860051825       -0.2413451146        1.4552503739
 H        -10.5927109090       -1.8520167368        2.4298428071
 H         -9.8588469805       -4.1460602945        2.9705811380
 H         -7.5261757749       -4.8268218910        2.5370333221
 H         -5.9294587791       -3.2065746073        1.5635674330
 H         -3.2164476447       -2.5571630811        0.6039950576
 H         -0.8625108182       -3.1969849963        0.2016953532
 H         -0.3825922301       -3.6047349356       -2.3089884415
 H          0.8106683491       -5.3849392791       -3.5395804159
 H          3.2546524371       -5.5337551851       -3.4868872277
 H          4.5967703534       -3.8882121472       -2.2206717560
 H          5.4486752830       -1.7495034253       -0.6811751319
 H          6.0823226558       -2.4322084958        1.5255264871
 H          8.1464450251       -3.3612126501        2.4968201867
 H         10.0741605911       -1.9280269191        2.9781887618
 H          9.9847009458        0.5018053202        2.5286940741
 H          9.2446027497        3.0490779620        1.7976995856
 H          8.0408308432        5.0511775177        0.9882620248
 H          5.7739896978        4.8656871884        0.0770544893
 H          4.6200783208        2.6906834276       -0.0283537767
 H          3.5402323321        1.3163580076        1.6297488667
 H          1.3109906781        0.5189634423        0.9405113977
 H         -0.3749080168        2.5816533028       -0.2854918202
 H          1.1150719073        4.2159651176       -1.3642931485
 H          2.5101909271        3.5386008913       -3.2866219742
 H          2.3748304482        1.2263885428       -4.1429645892
 H          0.8672410314       -0.3942181709       -3.0881144025
 H         -2.4117292865        1.3383638827       -0.9545326504
 H         -8.3853150572        2.4598167082        0.4833683281
 H         -9.1457851968        4.7546631407       -0.0492298317
