  65
 
 C         -4.2891028989        4.0672174392       -1.9886407399
 C         -3.1092560082        3.3346242595       -2.1109605817
 C         -2.9915189938        2.0663877064       -1.5674306782
 C         -4.0908204466        1.5417956174       -0.8995651036
 C         -5.2843824460        2.2957225980       -0.7410866727
 C         -5.3805600745        3.5614415756       -1.3002455299
 C         -6.1745538239        1.4871597525        0.0449818183
 C         -7.4678497490        1.6632847137        0.5141609234
 C         -8.0588418472        0.6356205293        1.2323414137
 C         -7.3824174945       -0.5591993457        1.4737308218
 C         -6.0886222193       -0.7561145968        1.0211509711
 C         -5.4802095887        0.2795296844        0.3233566331
 N         -4.2266484225        0.3308081373       -0.2519021250
 C         -3.2618042359       -0.6716343245       -0.1888070065
 C         -2.6071735076       -1.1060368016       -1.3605100948
 C         -1.6694875750       -2.1027684892       -1.2959973573
 C         -1.3572534304       -2.6948682628       -0.0647950557
 C         -1.9870715062       -2.2526604631        1.1063936218
 C         -2.9368352610       -1.2669086752        1.0468776019
 S          0.0053711137       -3.8077038879        0.0487223947
 O          0.1068763710       -4.5823182764       -1.1783402778
 O         -0.0948016186       -4.5555087305        1.2924491212
 C          1.3663171509       -2.6906068954        0.1383488069
 C          1.6718551095       -2.0663994505        1.3552825269
 C          2.6072272968       -1.0664058360        1.3982062953
 C          3.2662836701       -0.6610421446        0.2186575398
 C          2.9487622255       -1.2891273572       -1.0025675051
 C          2.0010625166       -2.2779909714       -1.0408613437
 N          4.2270286886        0.3464887436        0.2607493135
 C          5.4846125090        0.2858561973       -0.3046592071
 C          6.1012502348       -0.7636742412       -0.9738450316
 C          7.3969773047       -0.5723838849       -1.4232889005
 C          8.0676730107        0.6302079491       -1.2057863639
 C          7.4684916914        1.6721663579       -0.5155957428
 C          6.1725123675        1.5026627752       -0.0514692628
 C          5.2732181771        2.3277827555        0.7065875621
 C          5.3597869710        3.6082394003        1.2327300835
 C          4.2610984731        4.1271102421        1.8995550080
 C          3.0835646681        3.3927024587        2.0326688242
 C          2.9751581956        2.1102654996        1.5215817393
 C          4.0816007459        1.5732768318        0.8757457278
 H         -4.3467028885        5.0513377119       -2.4292313330
 H         -2.2695255850        3.7655040256       -2.6345737071
 H         -2.0702214908        1.5106065058       -1.6480703228
 H         -6.2848304749        4.1409144879       -1.1951845950
 H         -8.0040452180        2.5787657443        0.3170615568
 H         -9.0656949126        0.7549152821        1.6036961571
 H         -7.8777060673       -1.3487008814        2.0181741635
 H         -5.5767972423       -1.6904900723        1.1921400187
 H         -2.8877210131       -0.6771866240       -2.3105776416
 H         -1.1762443389       -2.4740589362       -2.1804114263
 H         -1.7133858867       -2.7220047304        2.0381904787
 H         -3.4163212309       -0.9121040571        1.9465843070
 H          1.1751559121       -2.4156520903        2.2466923141
 H          2.8824032306       -0.6123449238        2.3380831080
 H          3.4320083885       -0.9570885122       -1.9089476063
 H          1.7326126811       -2.7719934533       -1.9613888171
 H          5.5940677914       -1.7038696892       -1.1256899564
 H          7.8984814676       -1.3724787499       -1.9461242293
 H          9.0764656865        0.7444632012       -1.5734575262
 H          8.0000563279        2.5940575215       -0.3367413701
 H          6.2622089390        4.1889064501        1.1188376635
 H          4.3112296705        5.1227988601        2.3142874200
 H          2.2381256242        3.8333981673        2.5386448429
 H          2.0556535310        1.5526448363        1.6097441071
