  146
 
 C         -1.9769546139       -7.5488410833        1.6294075908
 C         -1.5862959672       -7.0238667592        0.2454620578
 C         -0.8899271912       -8.1577246233       -0.5199442090
 C         -2.8692975104       -6.6073899911       -0.4879866567
 C         -0.6552219456       -5.8244164143        0.3140405397
 C         -0.1936512975       -5.2920591286        1.5121374342
 C          0.6254562886       -4.1766546674        1.5355150164
 C          1.0075855847       -3.5670926502        0.3505751154
 N          1.7918165441       -2.3774100472        0.3506557518
 C          3.1637927568       -2.4689597440        0.4945167318
 C          3.7414469390       -3.7168175738        0.7502385609
 C          5.0938739521       -3.8441448311        0.9730595132
 C          5.9303404394       -2.7290610523        0.9772548261
 C          7.4224694678       -2.8075872993        1.2630712720
 C          7.7531171583       -1.9226331630        2.4731405647
 C          8.1945397552       -2.3107293998        0.0322845086
 C          7.8881751834       -4.2326757828        1.5737657687
 C          5.3502267555       -1.5067432880        0.6860310623
 C          3.9947996533       -1.3310913427        0.3932416065
 B          3.3456024098        0.0016230271       -0.0383400784
 C          3.9829772248        1.3342033737       -0.4875333033
 C          5.3296102633        1.5093339257       -0.8186819011
 C          5.9021865442        2.7317592715       -1.1239977573
 C          7.3852665666        2.8093597136       -1.4537690696
 C          7.6765699758        1.9325500343       -2.6797875970
 C          7.8446816311        4.2357318906       -1.7678733592
 C          8.1935059091        2.3018352468       -0.2508784504
 C          5.0671270322        3.8474957996       -1.0935609299
 C          3.7214145073        3.7207061577       -0.8329275787
 C          3.1501568663        2.4727225266       -0.5638035374
 N          1.7825441339        2.3815136147       -0.3827776844
 C          0.9986724000        3.5711583687       -0.3597617647
 C          0.5884212285        4.1852498364       -1.5329153807
 C         -0.2298858349        5.3004973907       -1.4857544714
 C         -0.6628652584        5.8281899776       -0.2749877163
 C         -1.5924593156        7.0269611582       -0.1796529012
 C         -2.8596488702        6.6052774752        0.5779227056
 C         -0.8807627936        8.1565984119        0.5778475551
 C         -2.0121250731        7.5602271814       -1.5518833103
 C         -0.2248130396        5.2092288579        0.8938179313
 C          0.5930297667        4.0977715798        0.8588837861
 C          1.1042543807        1.1951007214       -0.2114558449
 C         -0.2897463445        1.1823735171       -0.2412986059
 C         -0.9715472571        0.0015835134        0.0159057668
 N         -2.3723690037        0.0002133757        0.0299433321
 C         -3.1876340600       -0.9527586100       -0.5496830905
 C         -2.8738618541       -2.0749807170       -1.3033399842
 C         -3.9109513535       -2.8457043614       -1.7870172317
 C         -5.2601936464       -2.5398432304       -1.5625535255
 C         -6.3307697741       -3.4497804789       -2.1480712682
 C         -6.1971351497       -3.4619351644       -3.6774958169
 C         -6.1458427705       -4.8718369989       -1.6007117403
 C         -7.7488272290       -2.9892636399       -1.7991718376
 C         -5.5637122050       -1.4047113913       -0.8305279597
 C         -4.5393983112       -0.6124386600       -0.3288869519
 C         -4.5340241764        0.6074684484        0.4278527239
 C         -5.5511070127        1.3974452462        0.9474343470
 C         -5.2373155798        2.5339104257        1.6730282489
 C         -6.2996168030        3.4419364317        2.2763421882
 C         -6.1292926494        4.8631015762        1.7219548095
 C         -7.7224932015        2.9761287450        1.9551309716
 C         -6.1376766220        3.4585383027        3.8029769278
 C         -3.8850123635        2.8433836878        1.8728169447
 C         -2.8548265549        2.0749335688        1.3710061833
 C         -3.1793093156        0.9513314597        0.6239656967
 C         -0.2833852426       -1.1786604842        0.2583772670
 C          1.1094690312       -1.1911822042        0.1952772596
 C          1.8297793330        0.0019305927       -0.0174915032
 C          0.5733356346       -4.0984911661       -0.8560571255
 C         -0.2449162075       -5.2101469195       -0.8672395499
 H         -2.6484348968       -8.3977231467        1.5177848936
 H         -1.1034184835       -7.8846688079        2.1834805974
 H         -2.4946334140       -6.7848839485        2.2048159774
 H          0.0254335776       -8.4497600802       -0.0092593360
 H         -0.6331077491       -7.8547879849       -1.5312975276
 H         -1.5436301671       -9.0252416775       -0.5795017405
 H         -3.5819480509       -7.4293647438       -0.4950846873
 H         -2.6617120850       -6.3298794341       -1.5177162956
 H         -3.3273303646       -5.7550786964        0.0097701192
 H         -0.4748044396       -5.7337881783        2.4538591546
 H          0.9647244503       -3.7679300975        2.4761775918
 H          3.1213247939       -4.6007640943        0.7821191096
 H          5.4844747948       -4.8309787277        1.1625307278
 H          7.1999517901       -2.2602821509        3.3472414968
 H          7.4935851121       -0.8838838493        2.2880654916
 H          8.8170455513       -1.9732495165        2.6965856471
 H          9.2666750962       -2.3805063267        0.2054829380
 H          7.9544719759       -1.2752532651       -0.1925456173
 H          7.9445634492       -2.9143566132       -0.8380529754
 H          7.3772885580       -4.6284157482        2.4486838251
 H          7.7128100625       -4.8948726887        0.7288651539
 H          8.9567215662       -4.2291878175        1.7810335668
 H          5.9655615182       -0.6222516548        0.7016123471
 H          5.9434549374        0.6243500774       -0.8537690528
 H          8.7334721063        1.9814446655       -2.9347374869
 H          7.0985415923        2.2784829825       -3.5343515972
 H          7.4189791188        0.8933260157       -2.4945518475
 H          7.3101579836        4.6383659734       -2.6253392780
 H          7.6943670422        4.8923594230       -0.9138368366
 H          8.9069461025        4.2318525565       -2.0052437533
 H          7.9595318289        1.2647049561       -0.0273383534
 H          9.2599919747        2.3722059640       -0.4558182062
 H          7.9705443202        2.8985545148        0.6314752003
 H          5.4530458599        4.8344436529       -1.2918416599
 H          3.1013739707        4.6051928081       -0.8453951557
 H          0.9051223279        3.7801613867       -2.4829743667
 H         -0.5333964375        5.7457878062       -2.4188204125
 H         -2.6300839768        6.3198212522        1.6008148762
 H         -3.5716393224        7.4273740368        0.6064515209
 H         -3.3285181313        5.7568817195        0.0835544862
 H         -1.5330875404        9.0237481434        0.6552319146
 H          0.0241739518        8.4514629850        0.0504880312
 H         -0.6037536548        7.8482945413        1.5822132356
 H         -2.5427268455        6.8000960754       -2.1205373131
 H         -2.6802917530        8.4089790183       -1.4210377789
 H         -1.1502539724        7.8985009226       -2.1224986974
 H         -0.5286826252        5.5919975725        1.8561162226
 H          0.9153143627        3.6227287939        1.7742754657
 H         -0.8490950079        2.0718137946       -0.4801044568
 H         -1.8512607406       -2.3412694783       -1.5223553882
 H         -3.6569378181       -3.7183995662       -2.3693995990
 H         -6.3125818291       -2.4545114525       -4.0720073197
 H         -6.9646958622       -4.0957869587       -4.1171803526
 H         -5.2260491690       -3.8382762011       -3.9869392977
 H         -5.1849357937       -5.2863516720       -1.8902546306
 H         -6.2016943648       -4.8662234947       -0.5140535955
 H         -6.9272375818       -5.5257385745       -1.9828626834
 H         -8.4712429977       -3.6777038534       -2.2336608903
 H         -7.9013433079       -2.9769775205       -0.7223884042
 H         -7.9481658338       -1.9980073232       -2.1995174406
 H         -6.5820926672       -1.1093196141       -0.6400741936
 H         -6.5719919201        1.0993532534        0.7755164403
 H         -6.2055773994        4.8544396353        0.6365515633
 H         -5.1643073840        5.2811203761        1.9923085497
 H         -6.9053136847        5.5157099328        2.1170521405
 H         -7.9108990732        1.9849396816        2.3609081239
 H         -8.4388545187        3.6629734840        2.4019988727
 H         -7.8953640228        2.9614091060        0.8814595772
 H         -6.9000479082        4.0897713637        4.2552812304
 H         -5.1629135600        3.8404055207        4.0934894462
 H         -6.2408988308        2.4515631029        4.2019898564
 H         -3.6228264040        3.7172833328        2.4497448011
 H         -1.8290768238        2.3441231123        1.5710294379
 H         -0.8367960150       -2.0681444556        0.5104610264
 H          0.8739057289       -3.6271022767       -1.7806815172
 H         -0.5712679948       -5.5968434145       -1.8205547852
