  94
 
 N          3.0140548942        3.1450951313       -1.3590450134
 C          2.4483080245        2.2630681768       -0.8948548593
 C          1.7481016953        1.1484898665       -0.3784214644
 C          2.4606224446        0.0002969085        0.0003596580
 N          3.8483283458        0.0004401314        0.0005596170
 C          4.6611752708       -0.9130279257       -0.6557717592
 C          4.3131879413       -1.9591421839       -1.4931998137
 C          5.3337978910       -2.7030786742       -2.0547221293
 C          6.6695742768       -2.4045488364       -1.8042306887
 C          7.0209428875       -1.3392573054       -0.9985873947
 C          6.0118618095       -0.5810364936       -0.4217982098
 C          6.0116156392        0.5823911168        0.4235276921
 C          7.0203706289        1.3408655956        1.0005545440
 C          6.6685454226        2.4061483920        1.8060096822
 C          5.3326340274        2.7044047835        2.0561049866
 C          4.3123434383        1.9601906854        1.4943705924
 C          4.6607909049        0.9140976105        0.6571069075
 C          1.7482500512       -1.1480586476        0.3789282151
 C          2.4485951983       -2.2624914642        0.8955695587
 N          3.0142192650       -3.1443945109        1.3600296574
 C          0.3427652215       -1.1566959414        0.3767656866
 N         -0.3424809741       -2.2983548377        0.7789805263
 C         -1.3951870376       -2.3246059754        1.6824088484
 C         -1.7934358071       -1.3561745249        2.5887132181
 C         -2.8835867705       -1.6358549888        3.3911278398
 C         -3.5399769310       -2.8604948244        3.3180894017
 C         -3.1018344624       -3.8531835073        2.4629516668
 C         -2.0149432992       -3.5900056929        1.6419426843
 C         -1.2909632598       -4.3712649788        0.6760785087
 C         -1.4421393083       -5.6638495002        0.1954696076
 C         -0.5731657824       -6.1139008766       -0.7790977044
 C          0.4252917603       -5.2868290892       -1.2832879766
 C          0.5903810232       -3.9939460152       -0.8220947313
 C         -0.2616190458       -3.5473385247        0.1739316449
 C         -0.3631648511       -0.0000186620       -0.0000553719
 N         -1.7598897988       -0.0001778268       -0.0002899267
 C         -2.5710817819        0.8881231726        0.6860274295
 C         -2.2233445992        1.9053196056        1.5602973931
 C         -3.2425626732        2.6512869326        2.1204083897
 C         -4.5779536373        2.3753193219        1.8431730899
 C         -4.9298527386        1.3271022370        1.0158612017
 C         -3.9221836316        0.5710626602        0.4343581698
 C         -3.9218803770       -0.5720396899       -0.4356415026
 C         -4.9291407782       -1.3283991035       -1.0174374336
 C         -4.5766672577       -2.3765605373       -1.8445759075
 C         -3.2411069836       -2.6521432520       -2.1213787136
 C         -2.2222895841       -1.9058374219       -1.5609912187
 C         -2.5706068368       -0.8887151131       -0.6868664187
 C          0.3426233320        1.1568110602       -0.3766636005
 N         -0.3427511968        2.2983255765       -0.7790780908
 C         -1.3951931595        2.3243515841       -1.6828171920
 C         -1.7929279289        1.3558525468       -2.5892766047
 C         -2.8829080630        1.6352920348       -3.3920053175
 C         -3.5396237930        2.8597650661       -3.3191148843
 C         -3.1019820293        3.8525336811       -2.4638157378
 C         -2.0152764950        3.5895954588       -1.6424847444
 C         -1.2917999104        4.3709832579       -0.6763453261
 C         -1.4434717426        5.6634895049       -0.1956798412
 C         -0.5749257965        6.1136946463        0.7791984695
 C          0.4236009291        5.2868549604        1.2836325368
 C          0.5891882787        3.9940570843        0.8223800023
 C         -0.2623929108        3.5472954648       -0.1739351566
 H          3.2819439752       -2.1883077329       -1.7159138330
 H          5.0874892784       -3.5297719730       -2.7038171071
 H          7.4391461884       -3.0103908153       -2.2580932355
 H          8.0568362655       -1.0936965482       -0.8221055198
 H          8.0563667869        1.0955137218        0.8243846971
 H          7.4378582879        3.0121996609        2.2600326330
 H          5.0859626087        3.5311029225        2.7050564669
 H          3.2809893135        2.1891469698        1.7167883321
 H         -1.2700201257       -0.4169862483        2.6806869310
 H         -3.2262316484       -0.8882732064        4.0904994129
 H         -4.3911273237       -3.0411264725        3.9570325877
 H         -3.5879800854       -4.8161463842        2.4342132548
 H         -2.2277495818       -6.2982282980        0.5761401331
 H         -0.6705229475       -7.1180417563       -1.1632545341
 H          1.0848582217       -5.6585280296       -2.0528674104
 H          1.3623615772       -3.3637861979       -1.2368398800
 H         -1.1944594278        2.1137572404        1.8128940297
 H         -2.9932178754        3.4607265204        2.7900035796
 H         -5.3468342568        2.9819799602        2.2973194834
 H         -5.9660894666        1.0941765129        0.8245809705
 H         -5.9655081890       -1.0957684792       -0.8265058579
 H         -5.3452224954       -2.9834806413       -2.2989262521
 H         -2.9913079585       -3.4615481692       -2.7908464114
 H         -1.1932625734       -2.1139687383       -1.8132619802
 H         -1.2692410986        0.4168034977       -2.6811340237
 H         -3.2251450688        0.8876576062       -4.0915201543
 H         -4.3906112317        3.0402163061       -3.9583253053
 H         -3.5883818159        4.8153715442       -2.4351820801
 H         -2.2291291445        6.2976906527       -0.5765485691
 H         -0.6726800034        7.1177752199        1.1634126078
 H          1.0828339702        5.6586745999        2.0534399377
 H          1.3612134758        3.3640704262        1.2373064041
