  101
 
 C         -4.2737870223        7.7690988816        0.8149157751
 C         -3.9532053988        7.1556398458       -0.3851087366
 C         -3.3632075373        5.9051092642       -0.3915543375
 C         -3.0887665970        5.2424830496        0.8035727974
 C         -2.4622969162        3.9122278095        0.7963849461
 C         -1.4195949740        3.6168928077       -0.0803663774
 C         -0.8354305113        2.3671916253       -0.0973501945
 C         -1.2810639281        1.3673905383        0.7665182297
 N         -0.6932345757        0.0941662111        0.7442024928
 C          0.6923335891       -0.0169742821        0.5473079264
 C          1.5647285720        0.8761070901        1.1676188791
 C          2.9261292259        0.7707635600        0.9720834482
 C          3.4623370420       -0.2247342899        0.1561804285
 C          4.9153382193       -0.3350225852       -0.0382435004
 C          5.4379099780       -0.6215933574       -1.3077411430
 C          6.7946219271       -0.7237122028       -1.5366567416
 C          7.6541332813       -0.5357486150       -0.4627741464
 C          7.1468702073       -0.2719884245        0.8309375775
 C          5.7799001223       -0.1644082807        1.0360059868
 C          8.2845735251       -0.1839336726        1.7038595041
 C          8.4308598148        0.0669986133        3.0622424216
 C          9.7040879199        0.1031480077        3.5953305097
 C         10.8239850096       -0.0933735429        2.7893146181
 C         10.7041280976       -0.3438982226        1.4355992127
 C          9.4259315924       -0.4036934517        0.8978082176
 N          9.0301033629       -0.6133743213       -0.4083077539
 C          9.8848385769       -0.8579902187       -1.4960217376
 C          9.7855186411       -0.0865964919       -2.6501910465
 C         10.6302349149       -0.3307192261       -3.7178324322
 C         11.5820058748       -1.3344498617       -3.6406352191
 C         11.6832650855       -2.1012920967       -2.4912712075
 C         10.8363149948       -1.8710330824       -1.4223291886
 C          2.5828670575       -1.1115316366       -0.4633555035
 C          1.2196997099       -1.0113402741       -0.2752760557
 C         -1.4819628891       -1.0452287853        0.8777810918
 C         -0.9787703072       -2.2009924667        1.4841124380
 C         -1.7706563681       -3.3273266315        1.6112166897
 C         -3.0765829229       -3.3293527905        1.1558259122
 C         -3.5931956621       -2.1802854447        0.5584644318
 C         -4.9772923957       -2.1420674459        0.0861350888
 N         -5.4759580570       -0.9609879551       -0.2693832482
 C         -6.7434199472       -0.9595306082       -0.6723054329
 C         -7.3358701061        0.3223872893       -1.0560251975
 C         -8.6182056736        0.3715404990       -1.6008568458
 C         -9.1738126411        1.5863872589       -1.9542392516
 C         -8.4592898973        2.7597575326       -1.7647528904
 C         -7.1831636692        2.7173937912       -1.2235228721
 C         -6.6207138364        1.5053890335       -0.8720002050
 N         -7.5033449164       -2.0501084584       -0.7407302284
 C         -6.9216712788       -3.1889798777       -0.3722424379
 C         -7.7159317194       -4.4166287773       -0.4296941754
 C         -9.0749995229       -4.3612541265       -0.7358651779
 C         -9.8220746099       -5.5226367590       -0.7831405429
 C         -9.2222376965       -6.7464972618       -0.5274691660
 C         -7.8704019744       -6.8081622885       -0.2245434606
 C         -7.1184226900       -5.6501900117       -0.1737213154
 N         -5.6627157775       -3.2811961900        0.0499888770
 C         -2.7951739037       -1.0524101878        0.4126223340
 C         -2.3166817035        1.6594543161        1.6541436933
 C         -2.8945997665        2.9119000391        1.6660386439
 C         -3.4196498530        5.8676890551        2.0043522084
 C         -4.0035470792        7.1210947509        2.0091096891
 H         -4.7317326317        8.7475406830        0.8196165564
 H         -4.1654422136        7.6538635545       -1.3204393160
 H         -3.1308663959        5.4249327780       -1.3313917752
 H         -1.0543342000        4.3804882858       -0.7512495131
 H         -0.0290252501        2.1553445842       -0.7841995587
 H          1.1656225692        1.6538784516        1.8023887734
 H          3.5860507987        1.4797259288        1.4502495040
 H          4.7553257437       -0.7469624086       -2.1354153464
 H          7.1721551283       -0.9510479660       -2.5223107720
 H          5.3918326234        0.0233996228        2.0258988021
 H          7.5640241165        0.2335084884        3.6844198191
 H          9.8397008533        0.2942562935        4.6498880083
 H         11.8082316402       -0.0453407329        3.2323705839
 H         11.5786698823       -0.4790841407        0.8171149895
 H          9.0552566620        0.7076271679       -2.6985228214
 H         10.5500044801        0.2718126968       -4.6107467568
 H         12.2433439325       -1.5187039938       -4.4739628060
 H         12.4202894735       -2.8884149277       -2.4284439385
 H         10.8989669019       -2.4784049313       -0.5314205247
 H          2.9730809123       -1.8986756560       -1.0916853043
 H          0.5518318791       -1.7045819324       -0.7663515959
 H          0.0341408426       -2.2067036509        1.8581560827
 H         -1.3649914408       -4.2098965802        2.0830840254
 H         -3.7072605177       -4.1971973502        1.2611882650
 H         -9.1590615211       -0.5514487684       -1.7413357042
 H        -10.1667658710        1.6204848454       -2.3776196772
 H         -8.8970988451        3.7080349138       -2.0393082502
 H         -6.6270081917        3.6309228456       -1.0737398706
 H         -5.6297726599        1.4532023436       -0.4487621440
 H         -9.5250729298       -3.3998114114       -0.9288100553
 H        -10.8750005512       -5.4755638058       -1.0185828047
 H         -9.8084125542       -7.6527757014       -0.5648382676
 H         -7.4033538508       -7.7617051547       -0.0269720817
 H         -6.0650803243       -5.6778142988        0.0584732472
 H         -3.2102254556       -0.1823397710       -0.0711260088
 H         -2.6678919950        0.8952847616        2.3326198880
 H         -3.7074307906        3.1121769902        2.3488661860
 H         -3.1971545022        5.3749595608        2.9399113286
 H         -4.2473287640        7.5960627195        2.9488215344
