  93
 
 C          1.1778206540       -3.1150907789       -2.5295662992
 C          1.3585765626       -2.8120549395       -1.0713632822
 C          2.6195772528       -2.4979082987       -0.5884629763
 C          2.8523433883       -2.1894824067        0.7474578708
 C          4.2272422818       -1.8499799608        1.1649149518
 C          4.8879390566       -2.5690991345        2.1570457432
 C          6.1800201520       -2.2330837015        2.5205465790
 C          6.8275211313       -1.1709678408        1.9149285653
 C          6.1794072670       -0.4515327907        0.9151013391
 N          6.8190479407        0.6332649212        0.2925792555
 C          6.2896016935        1.8987445313        0.1412771806
 C          5.0751388873        2.4084960623        0.5812962519
 C          4.7980020081        3.7360673102        0.3152169608
 C          5.7049116614        4.5470758552       -0.3642316005
 C          6.9239050682        4.0516507369       -0.7854531893
 C          7.2250250174        2.7201746831       -0.5310306451
 C          8.3710103905        1.8959259951       -0.8005284868
 C          9.5832787830        2.1224551900       -1.4384908614
 C         10.4794423034        1.0765194892       -1.5482177316
 C         10.1732404409       -0.1858137064       -1.0434504743
 C          8.9733946668       -0.4359213414       -0.4048737860
 C          8.0779536946        0.6167870548       -0.2715232017
 C          4.8888772166       -0.8015674359        0.5365986543
 C          1.7795890511       -2.1722869173        1.6424198741
 C          1.9471445320       -1.8082425070        3.0885248515
 C          0.5172882222       -2.4751492902        1.1563530699
 C          0.2859422474       -2.8024443766       -0.1752698193
 C         -1.1038814666       -3.0525200933       -0.6066108555
 C         -1.4852108749       -4.2444335678       -1.2392597463
 C         -2.8218775252       -4.4402148013       -1.5929416768
 C         -3.7601324136       -3.4687199249       -1.3716807164
 C         -3.3953717825       -2.2261867265       -0.7681225938
 C         -4.3894798120       -1.2516612770       -0.6110444854
 N         -5.7050250200       -1.5341728353       -0.7421293534
 C         -6.3703042165       -0.4469427183       -0.4067805712
 C         -7.7855938839       -0.2807252209       -0.3405133699
 C         -8.6399660621       -1.3522183364       -0.6045645158
 C        -10.0101732873       -1.1956352383       -0.5137116821
 C        -10.5235334337        0.0395880349       -0.1489330094
 C         -9.6840742995        1.1097795675        0.1108722033
 C         -8.2919092082        0.9923482472        0.0167589332
 C         -7.3851704012        2.1047136607        0.2497760206
 C         -7.8562131156        3.3862247130        0.5243419279
 C         -7.0117831210        4.4641972747        0.7156519776
 C         -5.6268595002        4.2926076027        0.6152533889
 C         -5.1121644137        3.0547833649        0.3539399947
 C         -5.9530179330        1.9213739397        0.1807685016
 C         -5.4762337789        0.6391669184       -0.0872500961
 N         -4.2139976879        0.1084988524       -0.2241178898
 C         -2.9734671569        0.7580069870       -0.1357051747
 C         -2.1550905306        0.8393032000       -1.2635234228
 C         -0.9039606951        1.4171621280       -1.1661174705
 C         -0.4576661116        1.9190203221        0.0466960606
 C         -1.2742706781        1.8500031001        1.1661928816
 C         -2.5273456311        1.2737060174        1.0821247869
 C         -2.0457544955       -2.0797330615       -0.3546543229
 H          1.3102418086       -4.1813350438       -2.7152658840
 H          0.1827211786       -2.8341627491       -2.8666625000
 H          1.9178708770       -2.5807081217       -3.1218821611
 H          3.4575746897       -2.4958822385       -1.2724911835
 H          4.3903346358       -3.4004069866        2.6324471002
 H          6.6854321645       -2.7962212254        3.2913848190
 H          7.8237741139       -0.8876601929        2.2195437594
 H          4.3720911071        1.7927960684        1.1217926765
 H          3.8589550605        4.1564361830        0.6447400087
 H          5.4506610963        5.5795548364       -0.5544974721
 H          7.6323612258        4.6847658428       -1.2984952682
 H          9.8154972657        3.0962508939       -1.8432057155
 H         11.4289528664        1.2327705709       -2.0389046068
 H         10.8880700387       -0.9877626677       -1.1574142065
 H          8.7383028510       -1.4212429094       -0.0317820433
 H          4.3937454465       -0.2511031881       -0.2499557405
 H          2.0972482233       -2.7046937033        3.6908153496
 H          2.8038903578       -1.1547285157        3.2344356468
 H          1.0528040582       -1.3085122086        3.4555015331
 H         -0.3239511506       -2.4593032577        1.8361573943
 H         -0.7561413854       -5.0192233875       -1.4156050259
 H         -3.1143570897       -5.3717300139       -2.0566883012
 H         -4.7903999679       -3.6028561316       -1.6593286274
 H         -8.1963821563       -2.2982389369       -0.8747096700
 H        -10.6705858014       -2.0242905182       -0.7196487995
 H        -11.5923194655        0.1752299453       -0.0657011624
 H        -10.1349390457        2.0476876855        0.3924191263
 H         -8.9178749210        3.5649102707        0.5849425654
 H         -7.4222109049        5.4395165863        0.9289267460
 H         -4.9674418394        5.1390282123        0.7395677828
 H         -4.0463404587        2.9297976943        0.2585988825
 H         -2.5082808949        0.4358125208       -2.2013418323
 H         -0.2733623465        1.4737495740       -2.0407994853
 H          0.5243985143        2.3603987299        0.1204590644
 H         -0.9287269682        2.2373289604        2.1132693283
 H         -3.1637532440        1.2024411889        1.9527905927
 H         -1.7385293435       -1.1995044951        0.1831467617
