  68
 
 C         -7.3030132855        1.1520372322       -0.5275910662
 C         -6.4205096273       -0.0014723657       -0.0093479663
 C         -7.3043345041       -1.1551133159        0.5063682376
 C         -5.5759074603        0.5079892547        1.1377145651
 C         -6.1904614448        1.0161457069        2.2743321909
 C         -5.4622358389        1.4757835604        3.3565794998
 C         -4.0756547350        1.4225862208        3.3224120691
 C         -3.4373500730        0.9265240345        2.2092070044
 C         -4.1712401246        0.4752140289        1.1005003547
 N         -3.5018532565       -0.0016131438       -0.0050225413
 C         -2.0775575201       -0.0017425971       -0.0029160576
 C         -1.3750299719        1.1725032006       -0.2929264243
 C         -0.0042887514        1.1738757643       -0.2905795739
 C          0.7225409343       -0.0021066321        0.0009367924
 C          2.1415901662       -0.0023046175        0.0027687725
 N          2.8158797309        1.1466351518       -0.2590496125
 C          4.1246508768        1.1147996364       -0.2412444983
 C          4.8593101704        2.3484353807       -0.5020471322
 C          4.1788908559        3.5273938671       -0.8136173688
 C          4.8790494833        4.6918196079       -1.0556284774
 C          6.2653055378        4.6998238397       -0.9896102244
 C          6.9486333295        3.5331818434       -0.6805048921
 C          6.2538189199        2.3647593748       -0.4379802295
 N          4.8396678804       -0.0027498663        0.0056523204
 C          4.1237154371       -1.1200466807        0.2512330853
 C          4.8573964288       -2.3538622414        0.5137849980
 C          4.1759458559       -3.5324702608        0.8244462090
 C          4.8752089668       -4.6970863276        1.0681312552
 C          6.2615755062       -4.7056539079        1.0046412918
 C          6.9459284923       -3.5393622361        0.6964771068
 C          6.2520183484       -2.3707398360        0.4523459535
 N          2.8149297752       -1.1513544072        0.2662377029
 C         -0.0053882509       -1.1778838045        0.2905406651
 C         -1.3761275807       -1.1761586433        0.2890817699
 C         -4.1680138215       -0.4783582863       -1.1125326396
 C         -3.4308765341       -0.9298465053       -2.2190081804
 C         -4.0659212299       -1.4258582227       -3.3340989538
 C         -5.4524028674       -1.4787703264       -3.3724430879
 C         -6.1838006034       -1.0189606236       -2.2924096887
 C         -5.5725697991       -0.5109054805       -1.1539552820
 H         -7.9401235332        1.5344878134        0.2639608879
 H         -6.6767554789        1.9650613272       -0.8899798791
 H         -7.9360271591        0.8155502637       -1.3429943592
 H         -7.9395061110       -0.8187925243        1.3201621898
 H         -6.6790010596       -1.9681651154        0.8702931210
 H         -7.9393163219       -1.5374651070       -0.2869418565
 H         -7.2671970114        1.0557474839        2.3230891127
 H         -5.9713276785        1.8670706633        4.2239586921
 H         -3.4936762922        1.7667198864        4.1637562730
 H         -2.3602252987        0.8791071332        2.1823345582
 H         -1.9261712392        2.0736344155       -0.5211489857
 H          0.5494636621        2.0724116164       -0.5148013930
 H          3.1006816068        3.5057456822       -0.8612539874
 H          4.3452177089        5.5998211375       -1.2963755831
 H          6.8108062506        5.6125446276       -1.1788225283
 H          8.0278536525        3.5370806858       -0.6278840113
 H          6.7707080864        1.4489287584       -0.1946888552
 H          3.0976561999       -3.5104099273        0.8700615460
 H          4.3405809766       -5.6047977511        1.3082050768
 H          6.8063737953       -5.6185275425        1.1951456119
 H          8.0252434641       -3.5436901708        0.6458662992
 H          6.7697192262       -1.4551802209        0.2097509046
 H          0.5475102928       -2.0765594968        0.5163029539
 H         -1.9281346781       -2.0771488563        0.5157691487
 H         -2.3538283650       -0.8826256613       -2.1888910222
 H         -3.4814777702       -1.7701822510       -4.1736534533
 H         -5.9589524637       -1.8700022303       -4.2413305463
 H         -7.2603933686       -1.0583796544       -2.3444184855
