  105
 
 C         -7.6167158083        0.2800133605       -0.9318473133
 C         -6.4873755015        0.4945050205        0.0699151632
 C         -6.5006336988        1.9135323560        0.6355410773
 C         -5.4364408527        2.1463283152        1.7099433612
 C         -3.9963024806        2.2046238522        1.1929272980
 C         -3.6989220991        3.4774208862        0.4008550981
 C         -2.2389513495        3.5810017372       -0.0414048842
 C         -1.2913442575        3.8745217775        1.1295267246
 N          0.0641788948        4.0587833349        0.6909480287
 C          0.6536541019        5.2659541553        0.3791243653
 C          0.1147814512        6.5398309356        0.3893961930
 C          0.9452416939        7.6016595516        0.0355871070
 C          2.2728014164        7.3889038427       -0.3167594941
 C          2.8197091078        6.1151639357       -0.3327868175
 C          2.0085124757        5.0372769996        0.0156615797
 C          2.2210717811        3.6256257583        0.1064252701
 C          3.3215044164        2.8044193641       -0.1019088456
 C          3.1734997207        1.4170906635        0.0766604695
 N          4.2911035265        0.6308530820       -0.1120146242
 C          4.4410540949       -0.7220587937       -0.1718769296
 N          3.3956805344       -1.5306990927       -0.2599828560
 C          3.6904720382       -2.8201063276       -0.3154228259
 N          2.7120350969       -3.7630731631       -0.4150505800
 C          1.3636303597       -3.6365996336       -0.6715371722
 C          0.5608377467       -4.7825885319       -0.5051561053
 C         -0.8061530291       -4.7476104541       -0.7302242112
 C         -1.3771741217       -3.5471318078       -1.1421216118
 C         -0.5668418915       -2.3924319551       -1.3555410854
 C          0.8003819284       -2.4343181658       -1.1140443587
 C         -1.4427378049       -1.3597147813       -1.8103800616
 C         -1.2512273077       -0.0324388975       -2.1921257248
 C         -2.3527698703        0.6974560537       -2.6131776181
 C         -3.6233526437        0.1365325406       -2.6484906646
 C         -3.8401473628       -1.1858358975       -2.2591417887
 C         -2.7461453864       -1.9225881240       -1.8445122247
 N         -2.6780524682       -3.2395741137       -1.4317193388
 C         -3.8225745443       -4.0688465397       -1.1789608320
 C         -4.5240614003       -3.7258847248        0.1472541781
 C         -3.6119509054       -3.8829633125        1.3691344024
 C         -2.8342107000       -2.6076514962        1.7089690182
 C         -1.5993937433       -2.8942912624        2.5612176505
 C         -0.7648365817       -1.6336612400        2.7771908054
 C          0.4646946547       -1.8577255869        3.6583142035
 C          1.5286122934       -2.7232098873        2.9913479845
 N          4.9351947464       -3.3452922325       -0.2467521577
 C          5.8953517176       -2.4338030440       -0.1883382236
 O          7.1344159581       -2.9364429809       -0.1512241023
 C          8.1990512113       -2.0020948085       -0.0942007946
 N          5.7370976771       -1.1218662205       -0.1664107083
 C          1.9369313057        0.8752918454        0.4622994206
 C          0.8367192531        1.6853376612        0.6856814426
 C          0.9784453422        3.0589876103        0.5135806030
 H         -7.6001518708       -0.7354396312       -1.3217775156
 H         -7.5227111132        0.9703895567       -1.7677919851
 H         -8.5833941594        0.4478908040       -0.4603522301
 H         -6.5945626184       -0.2182565456        0.8916408669
 H         -5.5314550971        0.3006638296       -0.4194161482
 H         -6.3715581725        2.6293540865       -0.1778632008
 H         -7.4826223595        2.1001823183        1.0791924610
 H         -5.6562720729        3.0849286173        2.2255551981
 H         -5.5118150625        1.3440253274        2.4486214832
 H         -3.7873595154        1.3355552555        0.5674560545
 H         -3.3318184325        2.1565582486        2.0577106519
 H         -4.3259971554        3.4982857087       -0.4912723868
 H         -3.9564469176        4.3503337885        1.0057787860
 H         -1.9345111084        2.6502380052       -0.5236101036
 H         -2.1388382176        4.3873355513       -0.7718121674
 H         -1.6132603826        4.7828552238        1.6448970551
 H         -1.3079665555        3.0478268392        1.8430307821
 H         -0.9149023016        6.7208415135        0.6562201046
 H          0.5478874257        8.6054157540        0.0352244575
 H          2.8895632853        8.2345343490       -0.5851887789
 H          3.8511240352        5.9584420452       -0.6100066488
 H          4.2753132942        3.2156612721       -0.3968487263
 H          5.1742081652        1.1117410634       -0.1912748254
 H          3.0788802426       -4.6948015226       -0.2999244401
 H          1.0272771405       -5.7028499271       -0.1847424955
 H         -1.3927516478       -5.6416598993       -0.5885700449
 H          1.4227177886       -1.5716033588       -1.2684477800
 H         -0.2664892534        0.4092575159       -2.1596032270
 H         -2.2204979525        1.7227800822       -2.9274395681
 H         -4.4586852290        0.7307414785       -2.9856355665
 H         -4.8316780229       -1.6084753780       -2.2949257278
 H         -3.4961606629       -5.1103431866       -1.1609609160
 H         -4.5311815829       -3.9452335339       -2.0037609009
 H         -5.3806460345       -4.3959207071        0.2364368708
 H         -4.8987747000       -2.7026188525        0.1041043619
 H         -2.9057694115       -4.6951211182        1.1878165805
 H         -4.2130778278       -4.1679354961        2.2348720581
 H         -3.4905381419       -1.9118801338        2.2368199498
 H         -2.5057775336       -2.1114913532        0.7967681388
 H         -1.9016578576       -3.3046276757        3.5278529329
 H         -0.9902544354       -3.6434514485        2.0518594914
 H         -1.3935920273       -0.8701793404        3.2425800300
 H         -0.4383982825       -1.2545383304        1.8056144119
 H          0.9058360247       -0.8865799582        3.8969806866
 H          0.1585230715       -2.3226290252        4.5985817287
 H          1.1619423681       -3.7318569108        2.8180410800
 H          1.8218684936       -2.2986016650        2.0325649733
 H          2.4153335997       -2.7889741736        3.6198428466
 H          9.1088289467       -2.5975970814       -0.0628164638
 H          8.1176957041       -1.3779963459        0.7986225500
 H          8.1937655806       -1.3570265554       -0.9758271764
 H          1.8612892629       -0.1893383738        0.5917962012
 H         -0.1007544455        1.2460892775        0.9848690768
