94

C     -5.889922   -5.272750    1.024954
C     -5.027618   -4.455100    1.754029
C     -4.652728   -3.208162    1.250973
C     -5.146654   -2.775655    0.010774
N     -4.771009   -1.490307   -0.478622
C     -5.687129   -0.520531   -0.949427
C     -7.041780   -0.616927   -1.340171
C     -7.715601    0.526988   -1.774320
C     -7.073160    1.752500   -1.813203
C     -5.752512    1.867130   -1.374736
C     -5.055011    0.741897   -0.881136
C     -3.769964    0.488115   -0.317941
C     -3.560051   -0.877396   -0.353521
C     -2.269397   -1.366923   -0.273992
C     -1.736838   -2.672270   -0.506294
C     -2.234258   -3.935936   -0.899201
C     -1.388412   -5.041657   -1.019536
C     -0.030082   -4.906196   -0.800811
C      0.513084   -3.661240   -0.483152
C     -0.340089   -2.542561   -0.331950
N     -0.041933   -1.169181   -0.175210
C      1.239445   -0.629094   -0.486806
C      1.354084    0.374317   -1.450539
C      2.618037    0.877288   -1.763264
C      3.761943    0.399006   -1.135318
N      4.962772    0.905812   -1.451560
C      6.068906    0.431409   -0.822615
C      7.336440    0.950218   -1.139010
C      7.461947    1.967649   -2.115052
C      8.693136    2.515654   -2.465268
C      9.838535    2.056404   -1.843311
C      9.744202    1.053282   -0.876461
C      8.504885    0.471571   -0.494474
C      8.382979   -0.556212    0.492842
C      9.488194   -1.105647    1.197657
C      9.344743   -2.108909    2.158286
C      8.086689   -2.600753    2.449829
C      6.981596   -2.085020    1.777810
C      7.097089   -1.068251    0.799771
C      5.948664   -0.582386    0.150875
N      4.726432   -1.087398    0.461194
C      3.643205   -0.611078   -0.169196
C      2.387995   -1.117961    0.144049
C     -1.218779   -0.498475   -0.026217
C     -1.480161    0.830421    0.261600
C     -0.650639    1.865874    0.789120
C      0.656134    1.970527    1.319164
C      1.166554    3.199657    1.744409
C      0.375459    4.333588    1.703046
C     -0.946549    4.257466    1.263389
C     -1.460425    3.022104    0.803834
N     -2.779460    2.648185    0.454843
C     -3.904281    3.471155    0.746590
C     -3.964224    4.778016    0.245867
C     -5.057884    5.588045    0.554939
C     -6.083438    5.099712    1.365038
C     -6.020353    3.800426    1.869381
C     -4.931424    2.982540    1.564572
C     -2.759311    1.332957    0.097293
C     -6.008272   -3.601758   -0.720802
C     -6.376927   -4.848751   -0.211084
H     -6.177705   -6.244383    1.418491
H     -4.645754   -4.787302    2.716115
H     -3.990642   -2.581183    1.844434
H     -7.583575   -1.555280   -1.311491
H     -8.753147    0.450732   -2.090891
H     -7.597879    2.633373   -2.173647
H     -5.271850    2.837171   -1.433719
H     -3.279999   -4.079747   -1.136649
H     -1.801899   -6.005457   -1.305264
H      0.625725   -5.765938   -0.915174
H      1.590960   -3.578733   -0.392441
H      0.483582    0.763416   -1.974732
H      2.714257    1.659971   -2.511953
H      6.573380    2.347223   -2.620567
H      8.748660    3.295424   -3.219753
H     10.807865    2.472777   -2.104471
H     10.677676    0.732867   -0.422357
H     10.500682   -0.758753    1.011053
H     10.218384   -2.499891    2.673189
H      7.957501   -3.381144    3.194602
H      6.000307   -2.490160    2.026412
H      2.319790   -1.872507    0.923944
H      1.282568    1.096065    1.440759
H      2.180911    3.256337    2.131663
H      0.770820    5.282771    2.056764
H     -1.566073    5.146614    1.321617
H     -3.187713    5.164448   -0.409902
H     -5.113848    6.599369    0.160232
H     -6.934723    5.732161    1.604043
H     -6.820015    3.422371    2.501310
H     -4.891713    1.978700    1.981157
H     -6.356942   -3.320954   -1.710603
H     -7.036467   -5.495790   -0.784097
