  73
 
 O         -0.0631447956        4.6366695643        0.1426329658
 S         -0.0262250562        3.6171799572       -0.8844182183
 O         -0.0090259647        4.0695689871       -2.2581196880
 C         -1.4241189957        2.5147597227       -0.6531712073
 C         -2.1909049132        2.1276038388       -1.7337842569
 C         -3.2495302841        1.2576683982       -1.5342960675
 C         -3.5333893716        0.7761336701       -0.2599133241
 N         -4.6409944011       -0.1092303937       -0.1340569694
 C         -5.8677103864        0.4725615599        0.2509574768
 C         -5.8643201175        1.5885161313        1.0856693328
 C         -7.0368148796        2.2317666817        1.4429101510
 C         -8.2509611611        1.7695841371        0.9712177375
 C         -8.2665094754        0.6772949801        0.1249636738
 C         -7.0978481268        0.0155281986       -0.2498025366
 C         -7.2342201401       -1.0932683028       -1.1815200041
 C         -6.4312725032       -2.1491124569       -1.3221937541
 C         -5.2130683365       -2.4573334167       -0.5884273009
 C         -4.8572879419       -3.8022732877       -0.4932625020
 C         -3.6914032726       -4.2106396483        0.1257168226
 C         -2.8388916807       -3.2523622830        0.6403476378
 C         -3.1746057973       -1.9116163343        0.5623951570
 C         -4.3630438883       -1.4877699641       -0.0292087462
 C         -2.7476411315        1.1808187655        0.8206701802
 C         -1.6895064400        2.0495363608        0.6209727529
 C          1.3985834444        2.5641109978       -0.5945983893
 C          2.0923660502        2.6626113934        0.5955200147
 C          3.1679617730        1.8226064723        0.8285285566
 C          3.5440097480        0.8864749146       -0.1350078635
 N          4.6359323201       -0.0120517379        0.0273124942
 C          4.3790812211       -1.1952427855        0.7519454096
 C          3.4417490207       -1.1795416662        1.7828678026
 C          3.1146905892       -2.3279069127        2.4832530880
 C          3.7238594030       -3.5279262908        2.1677982752
 C          4.6371659050       -3.5617986942        1.1314051831
 C          4.9796393702       -2.4182752253        0.4108121759
 C          5.9154443844       -2.5831123899       -0.6907518523
 C          6.7525503052       -1.6763590296       -1.1972505735
 C          6.9402914606       -0.2955669089       -0.7782282494
 C          8.1881560662        0.2758802193       -1.0237392298
 C          8.4629745252        1.5950014216       -0.7177995876
 C          7.4602836637        2.3774779367       -0.1769300838
 C          6.2147405757        1.8300961506        0.0785957754
 C          5.9334071152        0.4934973184       -0.1967737490
 C          2.8279318146        0.8008647735       -1.3264258963
 C          1.7508868682        1.6381895806       -1.5578291487
 H         -1.9538375910        2.5207880938       -2.7099999819
 H         -3.8669538292        0.9452241188       -2.3626332804
 H         -4.9304103892        1.9837995824        1.4516080809
 H         -6.9918679124        3.0982153132        2.0863248768
 H         -9.1720518209        2.2632389364        1.2421620668
 H         -9.2079212952        0.3224430953       -0.2703661077
 H         -8.1376783076       -1.0606300934       -1.7780754407
 H         -6.7264931741       -2.9174900187       -2.0262897642
 H         -5.5168319738       -4.5400739031       -0.9282482890
 H         -3.4426167054       -5.2595343139        0.1835286061
 H         -1.9051439902       -3.5393155080        1.1012185492
 H         -2.4786888403       -1.1870195946        0.9522969091
 H         -2.9673822961        0.8244752855        1.8166908515
 H         -1.0779544170        2.3851908734        1.4435767085
 H          1.7866871394        3.4043198504        1.3173239882
 H          3.7098260063        1.8942154484        1.7605229258
 H          2.9389621424       -0.2603430356        2.0369829624
 H          2.3797620119       -2.2773548586        3.2731807934
 H          3.4781831581       -4.4299741266        2.7076855583
 H          5.1005366611       -4.4995618213        0.8586882608
 H          5.9571839733       -3.5896203045       -1.0888050901
 H          7.4294710762       -1.9940947282       -1.9809430227
 H          8.9553100935       -0.3377593749       -1.4748236013
 H          9.4387845386        2.0103553327       -0.9196667096
 H          7.6374906585        3.4195024411        0.0455074176
 H          5.4464193281        2.4718053592        0.4780051752
 H          3.1264242129        0.0732749677       -2.0656604781
 H          1.1915209790        1.5953095790       -2.4787744298
