112

C     -8.859872   -3.345385   -2.611209
C     -8.822900   -2.032614   -3.070614
C     -8.219466   -1.035887   -2.297372
C     -7.636540   -1.328506   -1.049419
N     -7.012076   -0.292918   -0.250553
C     -6.437797    0.858848   -0.896162
C     -5.520211    0.706944   -1.950671
C     -4.961688    1.821716   -2.578649
C     -5.315390    3.103751   -2.164163
C     -6.228825    3.272535   -1.125234
C     -6.786770    2.157599   -0.494808
C     -7.031154   -0.368180    1.198325
C     -8.262401   -0.642371    1.836928
C     -8.354283   -0.769865    3.222902
C     -7.216416   -0.631414    4.006323
C     -5.989430   -0.353408    3.404264
C     -5.868385   -0.200094    2.004215
C     -4.510217    0.088664    1.455386
C     -3.981470    1.418567    1.539454
C     -4.676995    2.484739    2.173673
C     -4.169000    3.780981    2.249811
C     -2.940122    4.059571    1.686961
C     -2.232374    3.039079    1.054785
C     -2.720968    1.707617    0.964861
C     -1.986023    0.667714    0.318113
C     -0.678082    0.981290   -0.323299
C     -0.683723    1.362274   -1.675811
C      0.501534    1.664679   -2.337875
C      1.725162    1.596667   -1.665472
C      2.912217    1.897195   -2.333939
C      4.137433    1.829686   -1.670512
C      4.230768    1.463025   -0.311962
C      5.471040    1.372201    0.386549
C      6.777027    1.653379   -0.253284
C      7.120597    2.995904   -0.516238
C      8.356478    3.336791   -1.068041
C      9.283921    2.343589   -1.359598
C      8.975716    1.008900   -1.099306
C      7.729080    0.640434   -0.548938
N      7.473621   -0.763233   -0.299878
C      8.384424   -1.523946    0.525187
C      9.087835   -0.916273    1.582023
C      9.972292   -1.648206    2.379987
C     10.174785   -3.003061    2.134494
C      9.496084   -3.625686    1.090763
C      8.611400   -2.892816    0.293629
C      6.326919   -1.387126   -0.911978
C      5.492678   -2.246201   -0.175412
C      4.361699   -2.822190   -0.758601
C      4.051058   -2.554678   -2.089697
C      4.869404   -1.712169   -2.838549
C      5.997311   -1.130574   -2.253625
C      5.466824    1.003324    1.742575
C      4.279563    0.709078    2.405494
C      3.058169    0.778104    1.731965
C      1.870326    0.472362    2.398565
C      0.645903    0.535566    1.734435
C      0.559004    0.907886    0.378678
C      1.766063    1.220047   -0.302568
C      3.021563    1.156861    0.369675
C     -2.487933   -0.668956    0.276839
C     -1.766901   -1.733057   -0.329008
C     -2.240806   -3.043351   -0.353987
C     -3.453661   -3.334692    0.237370
C     -4.184425   -2.310622    0.837948
C     -3.742828   -0.961960    0.861761
C     -7.694497   -2.662521   -0.606305
C     -8.297035   -3.660816   -1.378511
H     -9.327264   -4.120523   -3.212272
H     -9.265736   -1.777912   -4.029743
H     -8.226899   -0.016693   -2.676581
H     -5.217963   -0.289459   -2.265036
H     -4.244990    1.686171   -3.383372
H     -4.874177    3.972230   -2.645450
H     -6.500331    4.271748   -0.796431
H     -7.499346    2.304906    0.311829
H     -9.166228   -0.751286    1.240353
H     -9.314777   -0.980917    3.685584
H     -7.279937   -0.737153    5.086236
H     -5.106562   -0.250245    4.034274
H     -5.656573    2.316815    2.616623
H     -4.739963    4.562542    2.742229
H     -2.526212    5.062690    1.732607
H     -1.267338    3.303899    0.625712
H     -1.626284    1.421838   -2.217020
H      0.458724    1.953721   -3.385454
H      2.902476    2.181634   -3.383645
H      5.033522    2.055576   -2.244203
H      6.413516    3.789548   -0.278216
H      8.594291    4.379482   -1.262590
H     10.248436    2.604381   -1.787121
H      9.707806    0.239676   -1.336416
H      8.941422    0.137274    1.806015
H     10.499514   -1.157024    3.193583
H     10.862260   -3.572717    2.754041
H      9.655562   -4.681822    0.890245
H      8.112864   -3.401212   -0.528343
H      5.701347   -2.439401    0.873908
H      3.716455   -3.465667   -0.166928
H      3.165339   -2.994397   -2.539943
H      4.625193   -1.496982   -3.875008
H      6.622244   -0.474311   -2.853097
H      6.405013    0.932044    2.288829
H      4.321857    0.418544    3.452549
H      1.881046    0.178375    3.445801
H     -0.250369    0.286221    2.299458
H     -0.799103   -1.551127   -0.793873
H     -1.655332   -3.826440   -0.826990
H     -3.836922   -4.350926    0.237433
H     -5.125442   -2.587121    1.306592
H     -7.256563   -2.946237    0.345744
H     -8.321816   -4.684532   -1.014605
