  53
 
 C          1.9153606225        3.8502897786       -0.2166653363
 C          2.2008317906        3.3659470404        1.0495872840
 C          2.0500194864        2.0199726997        1.3207178148
 C          1.6277475450        1.1417650108        0.3257448355
 P          1.4452648008       -0.6116653945        0.8258212252
 C          3.1598371739       -1.2068381156        0.5407272883
 C          3.3545378938       -2.5806458464        0.6685749811
 C          4.6082819696       -3.1312969658        0.4898784930
 C          5.6870311759       -2.3116136421        0.1968450836
 C          5.5033317230       -0.9441021909        0.0872999958
 C          4.2468594385       -0.3891649770        0.2612863943
 C          0.6812570766       -1.3250000473       -0.6574506768
 C          1.2267988148       -1.7785766646       -1.8152230702
 S          0.0266620842       -2.4023002084       -2.8852615364
 C         -1.2282423315       -2.0419931128       -1.7542573665
 C         -0.7379470868       -1.4804839939       -0.6204874527
 P         -1.5295431568       -0.9253328122        0.9190232202
 C         -1.6170126243        0.8612381100        0.5093854322
 C         -1.9863882661        1.3155660454       -0.7519682905
 C         -2.0117272373        2.6711485496       -1.0174016166
 C         -1.6680939564        3.5810990794       -0.0299747321
 C         -1.3039287578        3.1339087548        1.2279185170
 C         -1.2768761125        1.7771411766        1.4965928825
 C         -3.2570306467       -1.4330344353        0.5709999577
 C         -4.3300009595       -0.5501516612        0.5880182467
 C         -5.6174933916       -1.0177562949        0.3902979773
 C         -5.8481431229       -2.3679493799        0.1898540399
 C         -4.7858685459       -3.2581506242        0.2024242010
 C         -3.5002158415       -2.7948088181        0.4035156374
 C          1.3421820429        1.6334751310       -0.9404992185
 C          1.4853406805        2.9835496596       -1.2064783044
 H          2.0255168059        4.9032910532       -0.4306617429
 H          2.5351524989        4.0399096019        1.8251750485
 H          2.2608941790        1.6327310632        2.3091666879
 H          2.5078378258       -3.2126248943        0.9040858149
 H          4.7483827146       -4.1985850955        0.5828756991
 H          6.6693737175       -2.7387668872        0.0581491285
 H          6.3434777768       -0.3024813239       -0.1370430682
 H          4.1138647457        0.6794598787        0.1723503110
 H          2.2581400980       -1.8001377154       -2.1097775016
 H         -2.2420747420       -2.2875394618       -2.0044431216
 H         -2.2546614053        0.6041185942       -1.5215613553
 H         -2.2979487517        3.0214751861       -1.9988741346
 H         -1.6839482111        4.6397839684       -0.2437987182
 H         -1.0352321382        3.8424168435        1.9977496721
 H         -0.9873155315        1.4159695598        2.4738509542
 H         -4.1584829521        0.5047151806        0.7506653341
 H         -6.4453281033       -0.3231567835        0.3950267083
 H         -6.8542415086       -2.7283554115        0.0330437628
 H         -4.9631226617       -4.3146771545        0.0607140667
 H         -2.6683485030       -3.4868105765        0.4279079887
 H          1.0054273379        0.9648316017       -1.7196688412
 H          1.2598025269        3.3601969224       -2.1937765995
