  108
 
 C         -3.6245851535       -4.8689299933       -0.3966192552
 C         -2.1990419674       -4.4271027679       -0.2549811649
 C         -1.8731065203       -3.0859106308       -0.2143399065
 C         -0.5445242452       -2.6491632761       -0.1313359902
 C         -0.2376250342       -1.2390594786       -0.0824649438
 N          1.0436514484       -0.8629025976       -0.0127664245
 C          1.3009178712        0.4489058277        0.0491192598
 C          2.6747107520        0.8876522067        0.0984857373
 C          2.9884229359        2.2528179941        0.1513655857
 C          4.3015712910        2.6563120588        0.1939861675
 C          5.3326073703        1.7160872037        0.1858637411
 N          6.6678613481        2.1658155494        0.2321903233
 C          7.5483938748        1.9820361549        1.2723790243
 C          7.3398103445        1.3677669670        2.5004794699
 C          8.4006759641        1.3243085671        3.3854953134
 C          9.6356751871        1.8850262854        3.0653501071
 C          9.8410131603        2.5195528448        1.8528976482
 C          8.7918917116        2.5759553265        0.9470000177
 C          8.6334030570        3.1541297425       -0.3613052491
 C          9.4752675400        3.8549368291       -1.2125664974
 C          8.9823520734        4.2700876552       -2.4372432345
 C          7.6715265292        3.9908364012       -2.8195015403
 C          6.8132896177        3.2933073575       -1.9902743035
 C          7.3010488647        2.8827907016       -0.7565227266
 C          5.0449678861        0.3445335248        0.1087374774
 C          6.1478999105       -0.6679398313        0.0317172706
 C          3.7208024504       -0.0443681388        0.0736615292
 N          0.3290692014        1.3708707381        0.0681881823
 C         -0.9328756670        0.9385612034       -0.0203750861
 C         -2.0001824393        1.9127896253       -0.0177332954
 C         -1.7198056969        3.2796198704        0.1107569632
 C         -2.7458804944        4.1940529099        0.1239173481
 C         -4.0716163252        3.7744686488        0.0056653697
 N         -5.0969180860        4.7407191900        0.0276596529
 C         -5.2830972373        5.7254043122       -0.9156352770
 C         -4.5624433378        5.9755267662       -2.0760478894
 C         -4.9738887165        7.0275070955       -2.8727585647
 C         -6.0765175457        7.8084084912       -2.5312498357
 C         -6.8036935715        7.5564059525       -1.3811934422
 C         -6.4095925731        6.5073941735       -0.5633727753
 C         -6.9088443996        5.9630185146        0.6715652818
 C         -7.9589058874        6.2978153466        1.5140392167
 C         -8.1425843437        5.5585652523        2.6691762591
 C         -7.2864841091        4.5088187616        2.9963587483
 C         -6.2332897390        4.1558397356        2.1735986075
 C         -6.0607528358        4.8778139305        0.9997073287
 C         -4.3755857474        2.4139162858       -0.1552612944
 C         -5.7894973274        1.9580911125       -0.3567708315
 C         -3.3336321102        1.5073989750       -0.1545057893
 N         -1.2475097743       -0.3589617239       -0.1092777472
 C          0.4795895699       -3.6054712257       -0.1011785590
 C          0.1717846068       -4.9446034511       -0.1311265500
 C         -1.1572914811       -5.3654575295       -0.1932361690
 N         -1.4349906283       -6.7468974691       -0.2138019785
 C         -2.0710424793       -7.4595861318        0.7756953555
 C         -2.5490439696       -7.0212669783        2.0039278720
 C         -3.1454464610       -7.9543158116        2.8312132391
 C         -3.2556137499       -9.2917071786        2.4552250644
 C         -2.7575951874       -9.7381034414        1.2438618932
 C         -2.1551784526       -8.8208498896        0.3952183782
 C         -1.5198338700       -8.9206022569       -0.8922127916
 C         -1.2876050696       -9.9669407581       -1.7729993298
 C         -0.6299565750       -9.6990867865       -2.9608027505
 C         -0.2121158245       -8.4081349501       -3.2790102267
 C         -0.4329736162       -7.3483345455       -2.4195385563
 C         -1.0825406956       -7.6148232220       -1.2214022882
 H         -3.7066294080       -5.6709877580       -1.1288798267
 H         -4.0123365659       -5.2447076834        0.5497690729
 H         -4.2459534581       -4.0360077153       -0.7145345140
 H         -2.6494581037       -2.3370657393       -0.2590031673
 H          2.1835968454        2.9709575656        0.1616271562
 H          4.5525008160        3.7063408441        0.2425597735
 H          6.3770421641        0.9511622732        2.7564623425
 H          8.2686629974        0.8503812344        4.3470876858
 H         10.4413415713        1.8291621673        3.7823435627
 H         10.7951415155        2.9659937715        1.6168843022
 H         10.4932977876        4.0694856197       -0.9244924943
 H          9.6225715772        4.8178329324       -3.1128613198
 H          7.3195933354        4.3247615723       -3.7845116022
 H          5.7990747340        3.0713501836       -2.2870637144
 H          5.7572321223       -1.6243128727       -0.3055467264
 H          6.9230808135       -0.3391458352       -0.6590937639
 H          6.6130909595       -0.8113782981        1.0066647415
 H          3.4638437008       -1.0911360307        0.0112594198
 H         -0.6921043150        3.5927356456        0.2075830999
 H         -2.5398293784        5.2489375837        0.2358176876
 H         -3.7116792649        5.3666030329       -2.3429565066
 H         -4.4308254307        7.2474887945       -3.7800904901
 H         -6.3670794907        8.6215403918       -3.1799491845
 H         -7.6606252196        8.1607637513       -1.1246997997
 H         -8.6145454621        7.1210036286        1.2735497077
 H         -8.9557298248        5.8030297370        3.3365608620
 H         -7.4464870123        3.9629198726        3.9145531542
 H         -5.5575613585        3.3565154174        2.4388237952
 H         -5.8042431542        0.9622052678       -0.7917354152
 H         -6.3266932515        1.9253549768        0.5907188420
 H         -6.3233315356        2.6403225170       -1.0165671718
 H         -3.5317049835        0.4532085952       -0.2766818456
 H          1.5031294439       -3.2695644912       -0.0463760686
 H          0.9543448481       -5.6890541887       -0.0966066798
 H         -2.4442707558       -5.9892603621        2.3041892861
 H         -3.5294543859       -7.6417813740        3.7911795329
 H         -3.7297624160       -9.9907368942        3.1281718690
 H         -2.8307029011      -10.7785015693        0.9653202627
 H         -1.6138927475      -10.9681505433       -1.5352354237
 H         -0.4385764179      -10.5014663079       -3.6578757143
 H          0.2931519064       -8.2322667219       -4.2172636242
 H         -0.1154100456       -6.3462541815       -2.6665153491
