  49
 
 C          5.6598717648        1.3112682768        0.6433062828
 C          5.0904159527       -0.0206612868        0.1455476661
 C          5.4278968612       -1.1271049281        1.1430254128
 C          5.6514759597       -0.3788173802       -1.2339855574
 N          3.6207104297        0.0957223377        0.0417197986
 C          3.0034713104        1.0129688187       -0.7578142820
 O          3.5626952098        1.8366084809       -1.4567623740
 C          1.5322974093        0.8737229352       -0.6638456993
 C          0.5967437423        1.6518889720       -1.3375198421
 C         -0.7474014406        1.3892272694       -1.1557418608
 C         -1.1780288787        0.3642981556       -0.3028654940
 N         -2.5304377356        0.1078243559       -0.1391676806
 C         -3.5230416266        1.0567070620        0.0752198019
 C         -3.4160480884        2.4292907050        0.2421859130
 C         -4.5756887559        3.1427347909        0.4879157269
 C         -5.8134014048        2.5112648808        0.5771871312
 C         -5.9208764011        1.1404196425        0.4442406228
 C         -4.7694411974        0.4046836254        0.1970847578
 C         -4.5174816882       -1.0031893396        0.0390773586
 C         -5.3429949712       -2.1196598408        0.0303631487
 C         -4.7747416969       -3.3599602647       -0.1866746843
 C         -3.4068317090       -3.4895512839       -0.4120609965
 C         -2.5657977733       -2.3909837699       -0.4074303830
 C         -3.1267540139       -1.1473120081       -0.1578568707
 C         -0.2300036474       -0.4112737501        0.3842615094
 C          1.0972120044       -0.1360030938        0.1780238904
 S          2.5314866507       -0.9257980666        0.8686339441
 O          2.6278632271       -0.7161041921        2.2838693207
 O          2.6629531521       -2.2749404225        0.3983841238
 H          5.4406589188        2.1058199915       -0.0646439675
 H          5.2243572481        1.5663201545        1.6071512657
 H          6.7369658016        1.2259542267        0.7539290720
 H          5.0156973866       -2.0782048543        0.8163807368
 H          5.0222802527       -0.8969135445        2.1247335444
 H          6.5080666101       -1.2194563893        1.2204539006
 H          5.2142804937       -1.3124059438       -1.5821710820
 H          5.4243538878        0.4068551773       -1.9496745000
 H          6.7294431834       -0.4952338850       -1.1700683292
 H          0.9332897861        2.4339953459       -2.0000320672
 H         -1.4841527625        1.9614597675       -1.6978844233
 H         -2.4616990987        2.9306874566        0.2009877167
 H         -4.5176235847        4.2132972613        0.6173099805
 H         -6.6965815218        3.1029219782        0.7667619354
 H         -6.8760609226        0.6465259878        0.5361283734
 H         -6.4062553448       -2.0151104188        0.1829473732
 H         -5.3973573660       -4.2421613853       -0.1948773619
 H         -2.9909507245       -4.4684461996       -0.5994153315
 H         -1.5112226705       -2.5075290139       -0.6059372431
 H         -0.5336092182       -1.1856483946        1.0696007219
