55
 xtb: 6.7.1 (edcfbbe)
C            3.97281817878018        5.83425810663848       -0.02617100539035
C            2.53938378957427        5.41129403150925       -0.00904463501864
C            2.15455912375790        4.08123159128447       -0.00983815795798
C            0.80659410619695        3.71320143308359        0.00040880065141
C            0.43645737319213        2.30246145480606       -0.00010388706217
N            1.42673608498393        1.41025154139494       -0.00426795439152
C            1.10061979487991        0.13185533292130       -0.00189175695999
N            2.03123130509651       -0.80330509032632       -0.00358817858539
C            1.63170839233620       -2.07498223655427        0.00064282675264
C            2.66726898196695       -3.10197478168305        0.00056685127493
C            2.31409062460006       -4.45303744496646        0.00505827984825
C            3.30011198603856       -5.41883107659889        0.00527795776904
C            4.62623368495924       -5.02207441210206        0.00036164353098
F            5.58042470874025       -5.97577794688479       -0.00126706799188
C            5.02230290014146       -3.68421747096210       -0.00426425578019
C            6.47212617258369       -3.32076854182680       -0.01407416244565
C            4.01524151068145       -2.73395263207374       -0.00373854407664
N            0.36399182942928       -2.48647529911412        0.00536031587941
C           -0.58020102781753       -1.56510444796177        0.00532446182196
N           -1.85533584669835       -1.90302296363320        0.00987291957203
C           -2.75689376510746       -0.92127831961717        0.00910643117508
C           -4.16353582975761       -1.30674225375716        0.00914816320731
C           -4.51997686390885       -2.65685782688472        0.01230402787379
C           -5.85340095608600       -3.01399588288149        0.01033527647089
C           -6.81305419807097       -2.01673476894328        0.00059416897437
F           -8.11311568859221       -2.37611478347358       -0.00424753217777
C           -6.50048602191027       -0.65665705762915       -0.00129805404186
C           -7.58937800872268        0.36798505462297       -0.03806052506003
C           -5.15694107371075       -0.32349638790917        0.00497822400774
N           -2.47945352399709        0.38244882154036        0.00885337689687
C           -1.20930561894772        0.73917370434396        0.00482175330968
N           -0.86456716143195        2.01258429108655        0.00455461527208
N           -0.22960818485515       -0.23128626982149        0.00318157390685
C           -0.18376138501874        4.69775321986769        0.01240153029029
C            0.17504999579991        6.03047026365243        0.01441848704268
C            1.51877789837521        6.36254715111576        0.00353980652594
F            1.85619074106678        7.66877144291481        0.00584653917901
H            4.17406173555165        6.50678206071187        0.81198703022777
H            4.19077153766045        6.37829267167900       -0.93849534328439
H            4.62743296240438        4.97153607642507        0.04650117897918
H            2.89799430672892        3.29942406977962       -0.01397636083484
H            1.26990441826979       -4.72060422502684        0.00611109944961
H            3.05943931809195       -6.47005739883548        0.00952334718877
H            6.97885061643918       -3.78518657950824        0.84019947354489
H            6.94540530504610       -3.69223198832444       -0.91227732566576
H            6.59754124054174       -2.24399581256660        0.04831834922786
H            4.25805325224639       -1.68264165745370       -0.00147951685595
H           -3.74263837641166       -3.40354252377991       -0.00960686567746
H           -6.16035970458072       -4.04768039700344       -0.00689644001604
H           -7.16131368512255        1.37568054365528        0.07562628171103
H           -8.26752204414455        0.19796659175425        0.84931523645867
H           -8.17652795192134        0.28885154251682       -0.91892011062531
H           -4.85203390142179        0.71113014805300        0.00629094587382
H           -1.21943536382010        4.39795617695205        0.01548982823477
H           -0.56656425342071        6.81354775447441        0.01954983738386
