  94
 
 N          1.9250683232       10.0629577743       -0.0150709920
 C          1.3625756560        9.0619445397       -0.0069950237
 C          0.6730132767        7.8356935170        0.0020352552
 N          1.3452654963        6.6860722343        0.0154258479
 C          0.6858150305        5.5165004996        0.0230129603
 C          1.3976384896        4.2857244401        0.0290589884
 C          2.8052760515        4.3011775076        0.0257530956
 C          3.5214652943        3.1380411099        0.0275495034
 C          2.8588277705        1.8969116730        0.0401203651
 C          3.6178738651        0.6437230242        0.0392350662
 C          3.1950414271       -0.4524904423        0.7928380435
 C          3.8991566230       -1.6363456945        0.7862538021
 C          5.0520251006       -1.7693388190        0.0097564183
 N          5.7590135596       -2.9728907087       -0.0122988751
 C          7.1555614994       -2.9626229659       -0.1073369877
 C          7.8186434623       -3.9234481077       -0.8708825387
 C          9.1968603312       -3.9096851652       -0.9594086420
 C          9.9330675897       -2.9403650729       -0.2974165352
 C          9.2786673821       -1.9825289873        0.4603003697
 C          7.9012674392       -1.9909876109        0.5604598690
 C          5.0732672658       -4.1900820337        0.0560914757
 C          3.8409523796       -4.3446744175       -0.5799923414
 C          3.1659562104       -5.5470725476       -0.5043938556
 C          3.7070324127       -6.6134143263        0.1954668991
 C          4.9329877435       -6.4667854490        0.8242211757
 C          5.6129484830       -5.2663889315        0.7611238360
 C          5.4829048175       -0.6760040337       -0.7443762682
 C          4.7798295983        0.5086504008       -0.7218148233
 C          1.4760652490        1.8763899916        0.0459932218
 C          0.7094298893        3.0469865145        0.0373984401
 C         -0.7322638472        3.0410300451        0.0360313285
 C         -1.4892702040        1.8641745681        0.0442468664
 C         -2.8721526384        1.8733335418        0.0360709383
 C         -3.6212329441        0.6141747812        0.0364723122
 C         -3.1901835600       -0.4775616932        0.7919414128
 C         -3.8856793386       -1.6665132031        0.7878318707
 C         -5.0379782026       -1.8092019929        0.0122359806
 N         -5.7368481562       -3.0175736906       -0.0064815383
 C         -7.1335245274       -3.0166743986       -0.0995592818
 C         -7.8845161923       -2.0480708645        0.5667571433
 C         -9.2620488642       -2.0484089698        0.4682115228
 C         -9.9113699958       -3.0121787931       -0.2863502292
 C         -9.1699144954       -3.9786304778       -0.9466781160
 C         -7.7915323966       -3.9836143857       -0.8597745875
 C         -5.0425855683       -4.2298406099        0.0628674853
 C         -5.5735060835       -5.3087234224        0.7706032611
 C         -4.8849731806       -6.5041803370        0.8345728112
 C         -3.6590722145       -6.6432329654        0.2039858145
 C         -3.1266715515       -5.5742792430       -0.4985413784
 C         -3.8102364150       -4.3767927264       -0.5749732628
 C         -5.4767381619       -0.7206385942       -0.7442374787
 C         -4.7821583374        0.4690528554       -0.7243323969
 C         -3.5448958996        3.1090041398        0.0207837442
 C         -2.8382935150        4.2779731883        0.0191951936
 C         -1.4305920638        4.2740648386        0.0255793248
 C         -0.7289172155        5.5106466747        0.0209331206
 N         -1.3980500512        6.6746794014        0.0110695079
 C         -0.7352824441        7.8298840566       -0.0002988950
 C         -1.4350676794        9.0502532284       -0.0118156450
 N         -2.0060893966       10.0464652233       -0.0218847721
 H          3.2995654631        5.2608492851        0.0251425060
 H          4.6005610214        3.1658818830        0.0444033174
 H          2.3196474011       -0.3628586144        1.4189458921
 H          3.5682769754       -2.4676162806        1.3915807661
 H          7.2450931266       -4.6724533883       -1.3970064864
 H          9.6988505999       -4.6561749898       -1.5567873336
 H         11.0096515866       -2.9314811397       -0.3715060213
 H          9.8453833163       -1.2275062700        0.9845186841
 H          7.3928370921       -1.2512241988        1.1612141651
 H          3.4239288503       -3.5190794778       -1.1378231332
 H          2.2143625019       -5.6547083339       -1.0036513141
 H          3.1775947867       -7.5522746270        0.2500217139
 H          5.3597739638       -7.2911347153        1.3759277458
 H          6.5626219511       -5.1503809010        1.2623302039
 H          6.3667363187       -0.7699230221       -1.3581005193
 H          5.1157171491        1.3337170323       -1.3319587253
 H          0.9844063542        0.9167726889        0.0290740660
 H         -0.9896743727        0.9086349466        0.0292639915
 H         -2.3153400809       -0.3803980493        1.4176897899
 H         -3.5485900292       -2.4942357778        1.3945989777
 H         -7.3800118202       -1.3036411224        1.1650546758
 H         -9.8328276834       -1.2955799724        0.9911783881
 H        -10.9880679921       -3.0100929448       -0.3592931647
 H         -9.6679609451       -4.7297464414       -1.5415557033
 H         -7.2139786809       -4.7303825063       -1.3846989332
 H         -6.5231344097       -5.1985568591        1.2732155640
 H         -5.3049747410       -7.3305869641        1.3884059588
 H         -3.1229465867       -7.5782522544        0.2592002740
 H         -2.1751898351       -5.6760532381       -0.9992393021
 H         -3.3999698834       -3.5491857053       -1.1348320978
 H         -6.3600574157       -0.8221815343       -1.3574894982
 H         -5.1240710100        1.2903512260       -1.3362064396
 H         -4.6242072651        3.1280621040        0.0355962229
 H         -3.3404445308        5.2335504317        0.0166940987
