  61
 
 C         -7.1963450153       -0.2938373141        2.3001126918
 C         -6.5454456045       -1.5087104467        2.0978072047
 C         -5.4137992320       -1.5991816402        1.3100320324
 C         -4.9454817262       -0.4375744988        0.7130714663
 C         -5.5839114177        0.8041204498        0.9344480002
 C         -6.7197347424        0.8697517510        1.7305022701
 C         -4.8194405792        1.7897490994        0.2226280305
 C         -4.9544255052        3.1611690417        0.0513681255
 C         -4.0321611812        3.8239532422       -0.7332565035
 C         -2.9954518901        3.1335422923       -1.3568406947
 C         -2.8411941249        1.7691504727       -1.2021865914
 C         -3.7496247810        1.1012783834       -0.3935042267
 N         -3.8383890105       -0.2443839706       -0.0906383230
 C         -2.9580165941       -1.2389338616       -0.5334916982
 C         -3.4627772762       -2.4082594178       -1.1151339263
 C         -2.6125170254       -3.3965061747       -1.5647282361
 C         -1.2449486633       -3.2033643604       -1.4493774077
 S         -0.0000334136       -4.3115531483       -1.9797949203
 C          1.2448994483       -3.2033832501       -1.4493793497
 C          2.6124647615       -3.3965445530       -1.5647339936
 C          3.4627404199       -2.4083088068       -1.1151445795
 C          2.9579980418       -1.2389748134       -0.5335034785
 N          3.8383852455       -0.2444338647       -0.0906592610
 C          4.9454807490       -0.4376337505        0.7130443376
 C          5.4137881840       -1.5992434744        1.3100076825
 C          6.5454416195       -1.5087821314        2.0977738811
 C          7.1963586282       -0.2939162872        2.3000666073
 C          6.7197591575        0.8696755082        1.7304526830
 C          5.5839282769        0.8040542966        0.9344083697
 C          4.8194624769        1.7896892356        0.2225917067
 C          4.9544617374        3.1611069681        0.0513256483
 C          4.0322013842        3.8238981242       -0.7332977229
 C          2.9954815195        3.1334961484       -1.3568741913
 C          2.8412085461        1.7691068814       -1.2022126990
 C          3.7496357186        1.1012279838       -0.3935320548
 C          1.5888177772       -1.0558683793       -0.4063008622
 C          0.7198025810       -2.0327518239       -0.8759546958
 C         -0.7198333799       -2.0327405237       -0.8759539216
 C         -1.5888332771       -1.0558459860       -0.4062948620
 H         -8.0799334224       -0.2655658870        2.9201563116
 H         -6.9314996207       -2.3998657984        2.5703755853
 H         -4.9063162777       -2.5427275406        1.1764084066
 H         -7.2134862935        1.8145437199        1.9008218137
 H         -5.7681857186        3.6926233006        0.5211775762
 H         -4.1167506105        4.8908494260       -0.8765925882
 H         -2.2981390622        3.6759250860       -1.9782150277
 H         -2.0460057980        1.2420882828       -1.7078542426
 H         -4.5300936440       -2.5226632306       -1.2252198650
 H         -3.0003400092       -4.2979913564       -2.0125110931
 H          3.0002736096       -4.2980354764       -2.0125175426
 H          4.5300547463       -2.5227272016       -1.2252353040
 H          4.9062946914       -2.5427845118        1.1763897858
 H          6.9314895972       -2.3999402262        2.5703419775
 H          8.0799502207       -0.2656520913        2.9201060143
 H          7.2135201884        1.8144631904        1.9007684210
 H          5.7682343449        3.6925529457        0.5211230830
 H          4.1168043045        4.8907922261       -0.8766418246
 H          2.2981702522        3.6758844685       -1.9782455579
 H          2.0460091131        1.2420521847       -1.7078707558
 H          1.2035001967       -0.1640370966        0.0631936228
 H         -1.2035016413       -0.1640208152        0.0631996656
