62
 xtb: 6.7.1 (edcfbbe)
C           -4.14768397496842       -1.21600504678106       -2.17295150631111
C           -4.20906003039544        0.02840084365473       -1.28145561825097
C           -4.14613377010990        1.30116338830049       -2.13168302051107
C           -5.44358381108370        0.01430199141940       -0.40765233503729
C           -6.76915495527182        0.02238088456130       -0.78418380347174
C           -7.74574716746043        0.00597572046066        0.20309371913288
C           -7.39853348881750       -0.01817036118933        1.54505584281286
C           -6.06833641447068       -0.02664804441915        1.93241282434704
C           -5.09220741442155       -0.01036185683788        0.95007704689766
C           -3.64166122835737       -0.01364892338550        1.05007560436017
C           -2.80626170755421       -0.03541838553439        2.15470082789012
C           -1.43658501120857       -0.03361851470657        1.95329121632267
C           -0.90045211616164       -0.00875151242434        0.66893741828451
C            0.56861199080894       -0.00643868859155        0.47999280073597
C            1.26198388279929       -1.22079191103502        0.40731595542213
C            0.59081589694182       -2.46830351004486        0.49985770727756
C            1.27527963353537       -3.64191652594090        0.42554123120297
C            2.67476896481713       -3.64073056568642        0.25391704827862
C            3.35568858799219       -2.46639683306896        0.15986564868184
C            2.68047925020489       -1.21952473259158        0.23229192150299
C            3.36502882324333       -0.00222373137055        0.13316940159057
C            4.83516180044300       -0.00015778668019       -0.04382729606565
C            5.38967578290511        0.04286460924307       -1.32126927771721
C            6.75913770086461        0.04371438635145       -1.49203036873441
C            7.59542359097099        0.00279999853797       -0.37472821874234
C            8.99870177145449        0.00415279435770       -0.54304281468839
N           10.13713088720799        0.00541694322318       -0.67979151830288
C            7.04692020201868       -0.03947951470985        0.90859624463865
C            5.67590792323352       -0.04155766429823        1.06635081648015
C            2.67286277826491        1.21293559259970        0.20038783083496
C            3.34138647818818        2.46181070036578        0.10428121398441
C            2.65386623809260        3.63402199326965        0.17348088766484
C            1.25426927091164        3.63095248331769        0.34427606328140
C            0.57636366565684        2.45534185843583        0.44314313405431
C            1.25439204567911        1.20992074884144        0.37578631765667
C           -1.74411441767914        0.01357925412373       -0.44125103805271
C           -3.10678881727687        0.01001994295912       -0.24648097320829
H           -4.19505618714661       -2.14077478342735       -1.53844629150254
H           -3.21943089955899       -1.26677009224249       -2.72497175267114
H           -4.98209233711152       -1.26301103380821       -2.85424091293796
H           -4.19429758432863        2.15807012934479       -1.52017472888578
H           -3.21887496230444        1.29382776564002       -2.71401065820787
H           -4.98151276730695        1.29179724245812       -2.84344557082715
H           -7.05180776348776        0.01109407204962       -1.82704524873268
H           -8.78878979461418        0.00357955218492       -0.07810903048343
H           -8.17487181087331       -0.00760986724962        2.29639611163775
H           -5.79995810135193       -0.01164436639107        2.97852147513272
H           -3.21151539408089       -0.01398513480346        3.15558273395257
H           -0.76473719757953       -0.01332689195369        2.79978368835380
H           -0.48660430064388       -2.45829298168196        0.61161303760504
H            0.74363245756361       -4.58003535371515        0.46234458872805
H            3.19147223851784       -4.58052646768156        0.16320798254633
H            4.42297592810718       -2.46504689227569        0.00862442283471
H            4.73605508566653        0.02064793580046       -2.18128233317492
H            7.19079619838858        0.02078136052971       -2.48219839120460
H            7.70035400017348       -0.01963285222033        1.76869179547594
H            5.24401014219516       -0.02068265176793        2.05644010111959
H            4.41915246562439        2.46458115285942       -0.00750424202624
H            3.18428973653820        4.57912199100691        0.13257758871494
H            0.73639146491439        4.57679336883945        0.43120632507088
H           -0.49051898121889        2.45417286262792        0.59474386158050
H           -1.31661254098410        0.00861198438062       -1.43387790966166
