68
 xtb: 6.7.1 (edcfbbe)
C           -7.29129571838148        1.14574778704204       -0.54131484719694
C           -6.41093381406957       -0.00159615321358       -0.01020070966346
C           -7.29179857287194       -1.15016958935539        0.51745232433650
C           -5.56355166190624        0.52163226688868        1.13494798246770
C           -6.18572360772918        1.03369825307196        2.26628985353966
C           -5.46926356381429        1.49743921197755        3.35465813309744
C           -4.08750945108831        1.43696539236656        3.32847296631495
C           -3.44339212882888        0.93472306640434        2.21664093972068
C           -4.16525800322106        0.49030205581556        1.10437216831876
N           -3.48780694916789       -0.00037923634274       -0.00391393501131
C           -2.06906635294229       -0.00067379805467       -0.00056747643117
C           -1.37011781790544        1.18890724191733       -0.19031753708700
C            0.00955463154814        1.18779102811468       -0.18883183647268
C            0.71176458120209       -0.00153178116677        0.00495182429611
C            2.17486412114982       -0.00206642292008        0.00638560450510
N            2.79862159681485        1.15014153742025       -0.22398965444342
C            4.12906699214833        1.10402454668004       -0.21656409600631
C            4.86070029028364        2.34511284251558       -0.47070563852382
C            4.17109755118849        3.51381391789162       -0.79228743460188
C            4.86520367229786        4.68367342574873       -1.03455551082529
C            6.24969772411203        4.69975156711456       -0.95702882281734
C            6.94117469713041        3.54107831384213       -0.63670795428522
C            6.25283386628551        2.36786299620800       -0.39406098267527
N            4.83293224557704       -0.00318971030070        0.00577303883350
C            4.12820235400768       -1.10970087600377        0.22903537422607
C            4.85916373667578       -2.35135380474669        0.48243062930923
C            4.16911638870205       -3.52026468648494        0.80226928896670
C            4.86281682255369       -4.69070301202588        1.04297925539450
C            6.24732014861561       -4.70713390001583        0.96571987601357
C            6.93925452116427       -3.54821675626408        0.64729099284679
C            6.25132350649796       -2.37444736064464        0.40616127421185
N            2.79769971211957       -1.15469692185348        0.23721151942508
C            0.00810611624519       -1.19036101059329        0.19639609625022
C           -1.37156898879059       -1.19060895556118        0.19234418336573
C           -4.16009459055080       -0.49162011217912       -1.11511616059985
C           -3.43308302466050       -0.93570251772425       -2.22416781348132
C           -4.07198857146126       -1.43874332327074       -3.33864713897842
C           -5.45357584186531       -1.50012936858585       -3.37088267081533
C           -6.17509399493339       -1.03654584758650       -2.28579017531356
C           -5.55821759951363       -0.52388110485723       -1.15181549586456
H           -7.92545037176540        1.54730214699951        0.22246065232648
H           -6.66312538320614        1.93732221101693       -0.94676930571833
H           -7.92910239685753        0.78146877460493       -1.36298249331402
H           -7.93437629879819       -0.78626813550863        1.33575485840785
H           -6.66417119538526       -1.94010365757968        0.92693155036641
H           -7.92134154053888       -1.55356701032575       -0.24898112034308
H           -7.26390975239577        1.10737225977853        2.28857643412847
H           -5.98646520845644        1.95730355548736        4.18580708404819
H           -3.50699798728554        1.83939033373601        4.14546809632798
H           -2.36593040473915        0.91181488852780        2.19723711777657
H           -1.91843957939795        2.10553852073764       -0.34931163615739
H            0.56391529458106        2.09895678129947       -0.34944163201812
H            3.09464668145642        3.48868705020663       -0.82450521979728
H            4.32738163729903        5.59580437520656       -1.24027489454499
H            6.79010284792888        5.62475340529054       -1.09903752787480
H            8.01929116955413        3.55944095371379       -0.54331290541644
H            6.77416113648488        1.45904866036070       -0.12837878449931
H            3.09267310481438       -3.49493193604386        0.83415142556747
H            4.32471714867996       -5.60296293093622        1.24732135764727
H            6.78745968603399       -5.63246604971766        1.10666616939300
H            8.01742697682574       -3.56669834995115        0.55433501210741
H            6.77297433476461       -1.46538251868239        0.14192382918050
H            0.56129185300656       -2.10188897447747        0.35903144129637
H           -1.92110495457970       -2.10692755828670        0.34898052411546
H           -2.35591493115116       -0.91215163383430       -2.20028680827233
H           -3.48795541383694       -1.84131074319992       -4.15298462634668
H           -5.96715605308404       -1.96071434637934       -4.20406851378194
H           -7.25332056019087       -1.11092775383949       -2.31259520216568
