68
 xtb: 6.7.1 (edcfbbe)
C           -6.90131043260314        1.26314709547691       -0.01340724862713
C           -6.01970366403293        0.00001125486102       -0.00563038337875
C           -6.90121266483840       -1.26318923524004       -0.00283732249270
C           -5.17306127128879        0.00512368446491        1.25408803720716
C           -5.79366909959336        0.00941122555740        2.49602697660782
C           -5.07503966539914        0.01255295805593        3.67779762936300
C           -3.69254871697191        0.01051690896306        3.62863289716396
C           -3.04951748920715        0.00630745197691        2.40823089860134
C           -3.77464807337246        0.00460686994511        1.21298816479818
N           -3.09859430008291        0.00019365994333        0.00286906540460
C           -1.67614036517947        0.00013345347203        0.00662244792189
C           -0.97967234013922        1.20528615559066        0.02433909904699
C            0.40065012378874        1.20470958380497        0.02674884636820
C            1.10257112327588        0.00000431429960        0.01196421850804
C            2.56690362934184       -0.00005762874310        0.01138759317758
N            3.18960735801293        1.17496026820200        0.00948559104423
C            4.52045193645343        1.12904365673375        0.00498492555584
C            5.25233970102012        2.39550750758579        0.00549458398541
C            4.56150474690009        3.60684917757514       -0.01032394765167
C            5.25647378028266        4.80093909174053       -0.01020025699254
C            6.64317726672945        4.79875018900450        0.00631349735980
C            7.33602348281058        3.59751982976166        0.02256829244199
C            6.64682544608933        2.40014333295970        0.02214141166711
N            5.22417944156031       -0.00011337390810       -0.00050417055384
C            4.52039953301305       -1.12923085129965        0.00293930513134
C            5.25227074945757       -2.39570022623801       -0.00529513308755
C            4.56163982280670       -3.60701220381909        0.04983828703921
C            5.25663796082972       -4.80108092134212        0.04022117464114
C            6.64314515926294       -4.79890372401257       -0.02682741209744
C            7.33578544525456       -3.59769934839433       -0.08247503835560
C            6.64656790195870       -2.40034385839999       -0.07140604078446
N            3.18955799233660       -1.17511830706330        0.01240573897105
C            0.40053546775555       -1.20463274822516       -0.00479056355951
C           -0.97978633888518       -1.20508232533768       -0.00769210232028
C           -3.76775675131765       -0.00433796947306       -1.21152240560492
C           -3.03592710934805       -0.00595420833206       -2.40268252160257
C           -3.67207885938962       -0.01026189093905       -3.62668703836440
C           -5.05426673097032       -0.01248004386405       -3.68366388990111
C           -5.77951744921790       -0.00941177822208       -2.50595067590067
C           -5.16592044095326       -0.00502794312407       -1.26052989781012
H           -7.53649585125990        1.29100012383916       -0.88421989224771
H           -7.53778954567244        1.29238597761059        0.87657899842379
H           -6.27447629821679        2.15349146009538       -0.00357808268836
H           -7.53613691931282       -1.29250079762414       -0.88255854833925
H           -7.53804956974351       -1.29091596932378        0.87823929869580
H           -6.27439186907387       -2.15345791260658       -0.00000887779812
H           -6.86665290951459        0.00173295473432        2.55535339513372
H           -5.58163137032045        0.00262367326674        4.62938732122085
H           -3.10150974519321        0.00180378238890        4.53691564010474
H           -1.96567651624645        0.00048837855880        2.37178353517051
H           -1.52895881447725        2.13501462150155        0.00939527889877
H            0.95479037847644        2.12997755930966        0.01061005064314
H            3.48271918142716        3.58989466292553       -0.01255480347848
H            4.71689250517982        5.73665690749484       -0.01134670279951
H            7.18381900487772        5.73370507516322        0.00434983606741
H            8.41587378136474        3.59651706794669        0.01880716082723
H            7.16942031603279        1.45660202516480        0.01748718310375
H            3.48268641270717       -3.58996558579621        0.03476616708297
H            4.71680333851759       -5.73675433511682        0.02884545548182
H            7.18363053295253       -5.73388907158831       -0.01242575146512
H            8.41564969289189       -3.59675466592778       -0.04697618364650
H            7.16924676305024       -1.45680333710650       -0.04015060525925
H            0.95468130933999       -2.12992535341259       -0.00382959834429
H           -1.52906610220305       -2.13483900188073       -0.00520974948821
H           -1.96173168050126       -0.00018164764213       -2.36842167918820
H           -3.09396507139293       -0.00159144210167       -4.53540781197389
H           -5.57392555804094       -0.00259888280294       -4.63201018875975
H           -6.86238743679249       -0.00177987340746       -2.56009866228253
