  65
 
 N        -10.7064221926       -0.0811457605       -0.1495422774
 C         -9.5582304593       -0.0897108470       -0.1368167188
 C         -8.1467606313       -0.0994754991       -0.1217255868
 C         -7.4493591516       -1.1383708746       -0.7424384338
 C         -6.0692411982       -1.1403325112       -0.7263380710
 C         -5.3655488077       -0.1159015803       -0.0964872647
 C         -3.8839041392       -0.1212130931       -0.0862016603
 C         -3.1813033632        0.4878995125       -1.1335606986
 C         -3.8497335312        1.1166854814       -2.2175260213
 C         -3.1535592356        1.7042709586       -3.2286056949
 C         -1.7433560179        1.7003824194       -3.2188634775
 C         -1.0651003363        1.1092935449       -2.1977575475
 C         -1.7514977239        0.4850245866       -1.1227590909
 C         -1.0632125225       -0.1257370112       -0.0665067902
 C          0.4198703515       -0.1282371647       -0.0564803649
 C          1.1136091074       -1.1911549890       -0.6463003361
 C          2.4935021044       -1.2394384172       -0.6623657070
 C          3.1887457194       -0.1980303421       -0.0632943002
 C          2.5023745571        0.8932152039        0.5189343798
 C          1.1145334981        0.9218583848        0.5230493683
 C          3.5087953251        1.7991752808        0.9970762115
 C          3.4598764247        3.0177506657        1.6624384597
 C          4.6476839543        3.6332412081        2.0034625147
 C          5.8734350774        3.0421460817        1.7013948242
 C          5.9477815221        1.8307987605        1.0408206714
 C          4.7573343515        1.2173481386        0.6751115799
 N          4.5491251104        0.0111929030        0.0368619474
 C          5.5512247262       -0.8548828295       -0.4317307432
 C          5.5397828605       -2.1987364144       -0.0699630884
 C          6.5269974666       -3.0474228419       -0.5370996128
 C          7.5340488588       -2.5640049309       -1.3564147421
 C          7.5488902928       -1.2254982728       -1.7134699192
 C          6.5600072102       -0.3715704185       -1.2598263729
 C         -1.7682813345       -0.7339918353        0.9799498838
 C         -1.0987678656       -1.3587005158        2.0652723148
 C         -1.7928711999       -1.9470509186        3.0772466602
 C         -3.2031196802       -1.9479564981        3.0665387355
 C         -3.8834610960       -1.3592869418        2.0453525475
 C         -3.1981205849       -0.7326542649        0.9707440697
 C         -6.0685163381        0.9160429134        0.5218768005
 C         -7.4485570548        0.9304832582        0.5128117490
 H         -7.9963869772       -1.9321132975       -1.2301672427
 H         -5.5245103599       -1.9406763974       -1.2052245295
 H         -4.9301514126        1.1204194700       -2.2253636232
 H         -3.6756007166        2.1788979602       -4.0469081871
 H         -1.2078921880        2.1715237890       -4.0303533311
 H          0.0149806183        1.1045438011       -2.1867875255
 H          0.5469558122       -1.9896613308       -1.1035443985
 H          3.0112753025       -2.0593980940       -1.1366461529
 H          0.5806503821        1.7494504105        0.9665442881
 H          2.5100523089        3.4682818304        1.9096085805
 H          4.6321502628        4.5822611726        2.5193094264
 H          6.7861576292        3.5409844454        1.9937043229
 H          6.9021713523        1.3742313995        0.8256029514
 H          4.7640442578       -2.5676763802        0.5846772531
 H          6.5135414677       -4.0894414654       -0.2529714730
 H          8.3056922803       -3.2283770586       -1.7155014686
 H          8.3300679166       -0.8449802223       -2.3551094997
 H          6.5568018043        0.6683686906       -1.5514183848
 H         -0.0186162745       -1.3552542671        2.0697965639
 H         -1.2703713090       -2.4180783772        3.8972368993
 H         -3.7378741529       -2.4203492233        3.8778836771
 H         -4.9638992393       -1.3601581205        2.0378902453
 H         -5.5230785848        1.7101266029        1.0103120772
 H         -7.9948542345        1.7307711326        0.9905633341
