  90
 
 C         -9.7495691367        3.6616357259       -0.7855819562
 C         -8.5384064355        3.7133328488       -0.0977004209
 C         -7.6724817432        2.6367130985       -0.0790039516
 C         -8.0416184358        1.4953740546       -0.7777059923
 C         -9.2778254526        1.4262277872       -1.4617829755
 C        -10.1319906924        2.5219915157       -1.4648181600
 C         -9.3546497942        0.1103583834       -2.0322946635
 C        -10.2985846919       -0.5382485840       -2.8187158329
 C        -10.0436586821       -1.8322085239       -3.2275260691
 C         -8.8594855538       -2.4758880201       -2.8724199985
 C         -7.9058250795       -1.8522313347       -2.0907664104
 C         -8.1647961649       -0.5581477682       -1.6603849839
 N         -7.3812861759        0.2899852175       -0.9042757328
 C         -6.1259032822       -0.0215844417       -0.3556369733
 C         -5.0390396379        0.8269956753       -0.5954436247
 C         -3.7902275443        0.5672513450       -0.0658952250
 C         -3.6346627635       -0.5727717317        0.7069213258
 C         -4.7191102047       -1.4451611574        0.9401199638
 C         -5.9715371884       -1.1657556143        0.4150665812
 C         -4.2208331043       -2.5177818831        1.7589604330
 C         -4.8256347832       -3.6288547439        2.3308295267
 C         -4.0625494606       -4.4597244695        3.1278939291
 C         -2.7222454069       -4.1761600891        3.3735479343
 C         -2.0995948859       -3.0760919210        2.8103330604
 C         -2.8490378058       -2.2596156175        1.9760280884
 N         -2.4946986094       -1.0882537894        1.3142995334
 C         -1.2295193125       -0.5390993756        1.2424785847
 C         -0.0691972644       -1.3218063724        1.1759118321
 N          1.1304175541       -0.7811272368        1.1845168712
 C          1.2271293836        0.5508986905        1.2321546025
 N          2.4920264212        1.1017941704        1.2944035003
 C          2.8455165675        2.2832674814        1.9384777657
 C          2.0956290239        3.1115379962        2.7606779527
 C          2.7177259255        4.2199767138        3.3078584716
 C          4.0578991583        4.5006166043        3.0582127797
 C          4.8214438566        3.6585111353        2.2734942859
 C          4.2171724288        2.5389468695        1.7178705161
 C          4.7161903667        1.4544783393        0.9153218019
 C          5.9689637276        1.1681165781        0.3951022490
 C          6.1245205621        0.0130830108       -0.3590720227
 N          7.3804543014       -0.3041427401       -0.9028730332
 C          8.0415230599       -1.5078273775       -0.7635420895
 C          7.6712819381       -2.6437456289       -0.0566178766
 C          8.5384300641       -3.7195497434       -0.0631965159
 C          9.7519557580       -3.6723995101       -0.7471864342
 C         10.1357194165       -2.5378764674       -1.4341669996
 C          9.2803268535       -1.4431287592       -1.4433773402
 C          9.3585353133       -0.1317839484       -2.0239738046
 C         10.3058153416        0.5114621180       -2.8107800513
 C         10.0522385013        1.8022645822       -3.2302524441
 C          8.8657621044        2.4475571310       -2.8860036817
 C          7.9086462291        1.8290185677       -2.1045192986
 C          8.1665478106        0.5385910628       -1.6625697200
 C          5.0381428380       -0.8394542208       -0.5869683414
 C          3.7890723188       -0.5730663139       -0.0611475575
 C          3.6323460224        0.5780974951        0.6947345044
 C          0.0667134213        1.3324696662        1.1545072315
 N         -1.1328127183        0.7920019596        1.1734889357
 H        -10.3982648798        4.5254177612       -0.7778170850
 H         -8.2724727443        4.6144047735        0.4358676491
 H         -6.7433736807        2.6808271153        0.4690561864
 H        -11.0767604880        2.4778107011       -1.9860423486
 H        -11.2100959294       -0.0352937447       -3.1057747213
 H        -10.7654784974       -2.3542476290       -3.8386098999
 H         -8.6822434430       -3.4839383214       -3.2185491221
 H         -6.9843981598       -2.3530180768       -1.8338749483
 H         -5.1857536781        1.6981496528       -1.2156610641
 H         -2.9617048312        1.2317042321       -0.2476450843
 H         -6.8110344479       -1.8154858226        0.6066731781
 H         -5.8724730526       -3.8280615329        2.1611983252
 H         -4.5106584899       -5.3308682225        3.5812985021
 H         -2.1536816654       -4.8241231036        4.0236974937
 H         -1.0681031097       -2.8590307021        3.0409150527
 H         -0.1047128976       -2.3970498845        1.0742842780
 H          1.0642705967        2.8973777813        2.9945344199
 H          2.1487929636        4.8769418905        3.9485670843
 H          4.5054937726        5.3785650220        3.4987989348
 H          5.8681728908        3.8557520373        2.1008963750
 H          6.8080282992        1.8207585746        0.5783596007
 H          6.7406091667       -2.6843693846        0.4890189396
 H          8.2715604138       -4.6163549116        0.4770555016
 H         10.4015014588       -4.5354057755       -0.7299481546
 H         11.0823764903       -2.4968347221       -1.9522114481
 H         11.2189412407        0.0068993043       -3.0897423568
 H         10.7768434480        2.3204022302       -3.8413552719
 H          8.6894506631        3.4528223955       -3.2405772558
 H          6.9854892639        2.3310557502       -1.8565108596
 H          5.1852139119       -1.7191147750       -1.1949483166
 H          2.9610449877       -1.2406916983       -0.2334223253
 H          0.1020551697        2.4059296448        1.0354526615
