  80
 
 O          2.3927053476       -3.1999998069        2.6358434994
 C          2.3813261729       -2.5088882181        1.6233723535
 C          1.1628342679       -2.4487679516        0.7698867262
 C          1.2434481174       -2.4601103197       -0.6220344673
 C          0.0898982864       -2.4727873390       -1.3804134999
 C         -1.1628604236       -2.4487249326       -0.7699248760
 C         -2.3813527602       -2.5088064598       -1.6234120583
 O         -2.3927380748       -3.1998882570       -2.6359035867
 C         -3.5511260594       -1.7273647580       -1.2009961094
 C         -3.4505673858       -0.5887285206       -0.3951574541
 C         -4.5725586380        0.1281052112       -0.0493243510
 C         -5.8435999069       -0.2703353044       -0.4865858253
 N         -6.9718971568        0.4428788592       -0.1271372443
 C         -6.9064364453        1.8275037248        0.1134978894
 C         -6.1461826997        2.6553759846       -0.7107791268
 C         -6.0983119259        4.0160414578       -0.4726355103
 C         -6.8110340158        4.5692336188        0.5791799413
 C         -7.5753675956        3.7504175628        1.3946545280
 C         -7.6235225027        2.3875165693        1.1689284268
 C         -8.2200525696       -0.1961751440       -0.0103967486
 C         -8.3220401058       -1.4427140486        0.6047119743
 C         -9.5538818290       -2.0581712893        0.7237742326
 C        -10.6964922554       -1.4387897573        0.2431258695
 C        -10.5996723904       -0.1958328585       -0.3613535638
 C         -9.3711132901        0.4241294729       -0.4917752936
 C         -5.9431801516       -1.4047803380       -1.3044777049
 C         -4.8172289522       -2.1054738685       -1.6622426420
 C         -1.2434743457       -2.4600967645        0.6219959831
 C         -0.0899247437       -2.4728167962        1.3803747274
 C          3.5511079708       -1.7274504617        1.2009733262
 C          4.8172078437       -2.1055845590        1.6622077816
 C          5.9431657019       -1.4048950304        1.3044560301
 C          5.8435959252       -0.2704303346        0.4865900252
 N          6.9719002840        0.4427767976        0.1271511831
 C          8.2200473546       -0.1962899087        0.0103911573
 C          9.3711180222        0.4239927689        0.4917740699
 C         10.5996693057       -0.1959807564        0.3613323298
 C         10.6964712156       -1.4389274440       -0.2431709404
 C          9.5538507729       -2.0582870571       -0.7238237583
 C          8.3220168109       -1.4428181143       -0.6047421154
 C          6.9064561811        1.8274064469       -0.1134620647
 C          6.1462244656        2.6552773459        0.7108364722
 C          6.0983734586        4.0159475302        0.4727153528
 C          6.8110925754        4.5691451533       -0.5790992510
 C          7.5754026996        3.7503297713       -1.3945964940
 C          7.6235385053        2.3874245080       -1.1688923267
 C          4.5725577336        0.1280359552        0.0493431625
 C          3.4505597221       -0.5887935763        0.3951625717
 H          2.2082935200       -2.4903841007       -1.1058318574
 H          0.1398614584       -2.4990910356       -2.4593438266
 H         -2.4824063534       -0.2544468235       -0.0539860255
 H         -4.4782532886        1.0031072625        0.5761028796
 H         -5.6001548575        2.2263087447       -1.5383558947
 H         -5.5075105730        4.6487319356       -1.1187244458
 H         -6.7737635608        5.6329013402        0.7599657236
 H         -8.1331599486        4.1740593811        2.2168064728
 H         -8.2156574414        1.7486869513        1.8076834614
 H         -7.4331518463       -1.9211866945        0.9894887481
 H         -9.6222740074       -3.0238041793        1.2030027475
 H        -11.6569805187       -1.9218886411        0.3407088514
 H        -11.4853513659        0.2920995802       -0.7408959031
 H         -9.2943727627        1.3904468653       -0.9684634382
 H         -6.9110785223       -1.7164533158       -1.6673169386
 H         -4.8909193176       -2.9697438284       -2.3064332187
 H         -2.2083201279       -2.4903689634        1.1057923434
 H         -0.1398890539       -2.4991514920        2.4593041658
 H          4.8908905868       -2.9698703098        2.3063780864
 H          6.9110618171       -1.7165877323        1.6672842528
 H          9.2943911957        1.3903019297        0.9684810894
 H         11.4853561147        0.2919341631        0.7408789503
 H         11.6569534165       -1.9220352947       -0.3407692330
 H          9.6222291466       -3.0239112567       -1.2030717261
 H          7.4331206518       -1.9212729160       -0.9895228514
 H          5.6001985846        2.2262055270        1.5384121839
 H          5.5075894801        4.6486373407        1.1188208166
 H          6.7738375164        5.6328164863       -0.7598671893
 H          8.1331918589        4.1739755184       -2.2167485984
 H          8.2156555288        1.7485953443       -1.8076644371
 H          4.4782603088        1.0030542804       -0.5760623894
 H          2.4824008439       -0.2544908304        0.0540055991
