  58
 
 C          7.6646448424        1.6347664340        0.0793199302
 C          7.2732544043        0.3531505826        0.4284440587
 C          5.9341898787        0.0083482225        0.4302779350
 C          4.9652199738        0.9469777796        0.0828074845
 C          3.5321822901        0.6230852697        0.0700979706
 C          3.0767263565       -0.6959807193       -0.1514469382
 C          1.7312352350       -0.9722268887       -0.1532310605
 C          1.2610644548       -2.3557353622       -0.3340544034
 C          1.6921052020       -3.1035253017       -1.4257112239
 C          1.2645553631       -4.4078446478       -1.5931631131
 C          0.4102542842       -4.9841751399       -0.6679613807
 C         -0.0118374414       -4.2517989331        0.4291477456
 C          0.4092503024       -2.9455632955        0.5965111818
 C          0.8220444431        0.1051311821        0.0335796312
 C         -0.5751401096       -0.0324235318       -0.0281183417
 C         -1.3940479452        1.0503393903        0.1838301646
 N         -2.7970197147        0.8946549179        0.1592178590
 C         -3.4366964237        0.0665336746        1.0836972284
 C         -2.7489219264       -0.5921112081        2.0951134835
 C         -3.4163874497       -1.4070402376        2.9967522115
 C         -4.7837611557       -1.5695004466        2.9102736198
 C         -5.4904236934       -0.8931376111        1.9265494646
 C         -4.8297793909       -0.0775917896        1.0271868834
 O         -5.6026889376        0.5843653541        0.1055468137
 C         -4.9575982038        1.3920469905       -0.7985611864
 C         -5.7430647249        2.0387762091       -1.7337182101
 C         -5.1602680656        2.8474801593       -2.6988817766
 C         -3.7879258091        2.9865356575       -2.7310254275
 C         -2.9951585545        2.3404742437       -1.7942956420
 C         -3.5656308766        1.5542216356       -0.8013006034
 C         -0.8402917990        2.3217780602        0.4412574644
 C          0.5129675753        2.4915090564        0.4616487632
 C          1.3801705865        1.3959653155        0.2513152224
 N          2.7020345263        1.6229885361        0.2677847648
 C          5.3686816685        2.2391999555       -0.2519292492
 C          6.7071665326        2.5784477899       -0.2570361302
 H          8.7121412405        1.8981988401        0.0750943521
 H          8.0157949814       -0.3818107215        0.7039243995
 H          5.6452571667       -0.9887099852        0.7285928460
 H          3.7856483032       -1.4933100868       -0.3140537064
 H          2.3509383196       -2.6497559652       -2.1523750286
 H          1.5991328851       -4.9765521072       -2.4484068772
 H          0.0768805085       -6.0028071005       -0.7996781314
 H         -0.6720355225       -4.6987170901        1.1578782052
 H          0.0945087442       -2.3843100221        1.4645245690
 H         -1.0092859397       -0.9965649838       -0.2493585764
 H         -1.6828073251       -0.4562490189        2.1873051883
 H         -2.8544219219       -1.9089923116        3.7696162922
 H         -5.3079274844       -2.2059121375        3.6056233347
 H         -6.5619723425       -0.9807597370        1.8437798151
 H         -6.8106266244        1.8925061283       -1.6929553963
 H         -5.7817140489        3.3511026995       -3.4223805768
 H         -3.3180551130        3.5961213246       -3.4875229781
 H         -1.9223129923        2.4441498389       -1.8407049537
 H         -1.5067031193        3.1531398893        0.6189620411
 H          0.9577632505        3.4570891272        0.6435100744
 H          4.6106355716        2.9628334343       -0.5078893803
 H          7.0080617649        3.5811866814       -0.5234097062
