  53
 
 C         -7.1701664154       -2.8450741414        0.9537497236
 C         -7.6453895994       -1.5597057086        1.2067608059
 C         -6.8598120681       -0.4434439907        0.9844157804
 C         -5.5835987843       -0.6581791386        0.5008178493
 C         -5.0851820320       -1.9659389806        0.2397821405
 C         -5.8954387096       -3.0684439836        0.4712424955
 N         -3.7886162661       -1.9180291592       -0.2309885621
 C         -3.5146683129       -0.6510633144       -0.2667073656
 N         -2.4252937743        0.1218215823       -0.5717196454
 C         -1.2014747392       -0.3686964786       -1.0332654040
 C         -0.0032175130        0.1809192305       -0.5841060260
 C          1.1907092515       -0.3415271279       -1.0704263329
 C          2.4845940295        0.2047421108       -0.6367595584
 C          2.6449007512        1.5896985626       -0.4997666386
 C          3.8416916389        2.1530419161       -0.1024650717
 C          4.8906441126        1.2933593893        0.1715920945
 O          6.1385268893        1.6409782784        0.5807693503
 C          6.8300471511        0.4761714525        0.7291936737
 C          8.1464878121        0.3476364408        1.1333194218
 C          8.6591018316       -0.9345429444        1.2210014461
 C          7.8844481902       -2.0507531535        0.9155786959
 C          6.5701410711       -1.9213593414        0.5114851638
 C          6.0344254598       -0.6439483553        0.4165159209
 C          4.7526297403       -0.1043211601        0.0460067181
 C          3.5468801480       -0.6491056949       -0.3657517967
 C          1.1155542701       -1.4050792869       -1.9721577588
 C         -0.1311402695       -1.8843803498       -2.3328554789
 N         -1.2653174181       -1.3782839553       -1.8863761960
 C         -2.7857686194        1.4487970048       -0.3517331528
 C         -2.0960584262        2.6273029968       -0.5714265721
 C         -2.7361150962        3.8201201854       -0.2707127781
 C         -4.0323331159        3.8453485986        0.2251422838
 C         -4.7486972587        2.6749689217        0.4188644166
 C         -4.1186910725        1.4822288514        0.1208034230
 N         -4.5419346841        0.1758056941        0.1660715710
 H         -7.8201487084       -3.6870951554        1.1415078612
 H         -8.6490724171       -1.4320462003        1.5840622136
 H         -7.2298067848        0.5515060464        1.1803129747
 H         -5.5280373649       -4.0624394120        0.2750238610
 H         -0.0004956151        0.9600971081        0.1613955931
 H          1.8141881809        2.2378312531       -0.7350367181
 H          3.9607158373        3.2203362651       -0.0082064116
 H          8.7408533617        1.2157083016        1.3686077647
 H          9.6830425279       -1.0722081846        1.5338110683
 H          8.3228463152       -3.0339220042        0.9977695840
 H          5.9703116357       -2.7869365277        0.2757864759
 H          3.4292021076       -1.7185750858       -0.4489425866
 H          2.0122097697       -1.8354920088       -2.3890802481
 H         -0.2362608899       -2.7099551975       -3.0235932362
 H         -1.0994278147        2.6270006886       -0.9826220802
 H         -2.2128258607        4.7503107693       -0.4312403919
 H         -4.4958357777        4.7929969192        0.4519056674
 H         -5.7633276751        2.6918154738        0.7826419721
