  59
 
 O         -1.9279152929       -0.6187536733       -2.0403736683
 P         -2.7013747752       -0.2189029460       -0.8592955346
 C         -4.0537385714       -1.3734450208       -0.4568820643
 C         -3.8897489587       -2.6876549839       -0.8716425812
 C         -4.8643940390       -3.6290960442       -0.5948225641
 C         -6.0054468870       -3.2558433663        0.0967176445
 C         -6.1740140193       -1.9420890356        0.5045441434
 C         -5.2008929046       -0.9980363768        0.2291708246
 C         -3.5052948951        1.4081110138       -1.0319064241
 C         -3.8460506758        1.7949773459       -2.3204678060
 C         -4.4824792634        3.0038110324       -2.5358023044
 C         -4.7774089351        3.8277097250       -1.4615301112
 C         -4.4297857054        3.4463086558       -0.1754187351
 C         -3.7937190983        2.2372414346        0.0434346141
 C         -1.6955373666       -0.1028313088        0.6561869295
 C         -2.2072625042       -0.2849989931        1.9341513923
 C         -1.3673974421       -0.1531926885        3.0259649840
 C         -0.0291872826        0.1498600918        2.8461410263
 C          0.4987487749        0.3134874304        1.5672231985
 C          1.9221471199        0.6472758654        1.3917044861
 C          2.4280219320        1.7594698590        2.0585098823
 C          3.7414011349        2.1516680495        1.9096411123
 C          4.6084648480        1.4326268422        1.0859068247
 C          5.9679030610        1.8186753222        0.9007461529
 C          6.7978809847        1.1065467733        0.1047598006
 C          6.3439215315       -0.0613321824       -0.5755800795
 C          7.1843511206       -0.8134717658       -1.3977411116
 C          6.7165209728       -1.9444912891       -2.0412140765
 C          5.4055139308       -2.3529009754       -1.8799607722
 C          4.5292191660       -1.6304302713       -1.0686907300
 C          3.1767763987       -2.0295215025       -0.8646206040
 C          2.3393583240       -1.3127045313       -0.0800284145
 C          2.7705506722       -0.1190598821        0.5730820292
 C          4.1226149718        0.2815869115        0.4173371386
 C          4.9966770236       -0.4681900688       -0.4080915473
 C         -0.3537717148        0.1916879736        0.4744740644
 H         -2.9961024247       -2.9490874087       -1.4202217264
 H         -4.7375329268       -4.6518291622       -0.9183805747
 H         -6.7692823486       -3.9881810594        0.3136875323
 H         -7.0689098882       -1.6523463453        1.0363077861
 H         -5.3367122298        0.0302956756        0.5340579291
 H         -3.5942564483        1.1387787502       -3.1414083413
 H         -4.7482462516        3.3053209133       -3.5383860266
 H         -5.2745202070        4.7725014845       -1.6261347889
 H         -4.6538864574        4.0947696671        0.6593771032
 H         -3.5112553359        1.9426255777        1.0446125505
 H         -3.2492065952       -0.5367367607        2.0715342567
 H         -1.7572448160       -0.2918752944        4.0242023065
 H          0.6235581866        0.2400817030        3.7025870488
 H          1.7635769333        2.3368053284        2.6862631175
 H          4.1075462409        3.0264149597        2.4279975881
 H          6.3189527635        2.7014216264        1.4167737252
 H          7.8273418165        1.4071363776       -0.0309270988
 H          8.2109122985       -0.5012344911       -1.5273174139
 H          7.3817553432       -2.5144152320       -2.6738792405
 H          5.0469298621       -3.2393701620       -2.3833005898
 H          2.8327737113       -2.9306614826       -1.3520392842
 H          1.3235624560       -1.6454807137        0.0711363777
 H          0.0155956817        0.3309656281       -0.5321673561
