  54
 
 N          5.1288388119       -3.0194124758       -0.4194949358
 C          5.2337483834       -1.8884737766       -0.2447019839
 C          5.4698362577       -0.5130198367       -0.0388520736
 C          4.4963365482        0.4230474820        0.0656089184
 C          3.0628415495        0.2695908754        0.0535675931
 C          2.4041394649       -0.9616356445        0.1492185776
 C          1.0290259457       -1.0327655956        0.1353378539
 C          0.2531673784        0.1244353884        0.0255322588
 C         -1.1883641984        0.0973184804        0.0048349464
 N         -1.9556284775        1.1641454064       -0.0701908353
 C         -3.2415508126        0.7354882617       -0.0664886220
 C         -4.3364497944        1.6865707131       -0.1993415759
 C         -5.5209163018        1.3537158445       -0.8536351585
 C         -6.5346715553        2.2853225162       -0.9733704893
 C         -6.3797412757        3.5591073544       -0.4509043686
 C         -5.1970450549        3.9031181214        0.1832021609
 C         -4.1802056442        2.9759883012        0.3056332873
 C         -3.2676595918       -0.6540196695        0.0249457038
 C         -4.3463056856       -1.6185389688        0.1385772044
 C         -5.4991340777       -1.3136174733        0.8638640016
 C         -6.5142308606       -2.2420228049        0.9830835059
 C         -6.3971045619       -3.4883989341        0.3878023740
 C         -5.2543465508       -3.8028833004       -0.3280471597
 C         -4.2342165148       -2.8783781758       -0.4507631403
 N         -1.9524429447       -1.0319823219        0.0555269453
 C          0.9044589781        1.3598531638       -0.0608778239
 C          2.2759856971        1.4284037065       -0.0421211028
 C          6.8986934176       -0.1575644596        0.0137726930
 C          7.8266249573       -0.8671185750       -0.7482289621
 C          9.1662221893       -0.5296122049       -0.7125013755
 C          9.6020465509        0.5118328941        0.0899165175
 C          8.6896032510        1.2118859850        0.8620452610
 C          7.3484190125        0.8811028271        0.8274606627
 H          4.8305875017        1.4512626836        0.1424795355
 H          2.9758327614       -1.8699279368        0.2463815755
 H          0.5610185774       -2.0033931002        0.2155061705
 H         -5.6407413898        0.3679610909       -1.2788182535
 H         -7.4497002658        2.0178849507       -1.4820720270
 H         -7.1760038792        4.2830360102       -0.5448181661
 H         -5.0688131326        4.8987415015        0.5828912956
 H         -3.2515298559        3.2309823309        0.7922705712
 H         -5.5852004802       -0.3470522085        1.3368540225
 H         -7.4011020911       -1.9945709542        1.5475097295
 H         -7.1931855760       -4.2116501409        0.4820067123
 H         -5.1578209068       -4.7719940842       -0.7954654442
 H         -3.3553586822       -3.1261279241       -1.0302831964
 H         -1.6276471084       -1.9803635084        0.1456434057
 H          0.2990219615        2.2483882971       -0.1417025902
 H          2.7629872709        2.3909811974       -0.1109332319
 H          7.4903026888       -1.6782328266       -1.3778093503
 H          9.8732050691       -1.0829992097       -1.3125839830
 H         10.6493792313        0.7727626794        0.1193074018
 H          9.0255212644        2.0166131163        1.4995787164
 H          6.6492715507        1.4162169314        1.4536462479
