  72
 
 C          3.4756681074        3.5491954856        0.4795724182
 C          2.2997387968        2.6525990950        0.2368888183
 C          1.3540155739        2.4392688585        1.2314692794
 C          0.2570191176        1.6207138625        1.0296056476
 C         -0.7488732940        1.4771567496        2.1343821330
 C          0.0835440529        0.9492490647       -0.1962501806
 B         -1.0828459248       -0.0859315535       -0.3625284276
 C         -0.7693403302       -1.5434718422       -0.8859691835
 C         -1.7709173540       -2.2058852359       -1.6095891946
 C         -1.5839001701       -3.4389007830       -2.2030805930
 C         -0.3561521507       -4.0617957300       -2.0603247809
 Br        -0.0600022128       -5.7803626420       -2.8607641675
 C          0.6622539285       -3.4643838832       -1.3452005539
 C          0.4654461900       -2.2107854920       -0.7698554309
 N          1.5686158593       -1.6495695993       -0.1018109480
 C          1.6678087228       -1.3284489311        1.2352829818
 C          0.7644172737       -1.5489016318        2.2626170871
 C          1.1363178032       -1.1833748463        3.5424961153
 C          2.3809946745       -0.6153410122        3.8025133351
 C          3.2991070799       -0.4265359942        2.7887654245
 C          2.9508416781       -0.7959304834        1.4965168036
 C          3.6645423242       -0.8234598093        0.2515812349
 C          4.9508769704       -0.4572893993       -0.1221164111
 C          5.3439195563       -0.6577781369       -1.4304809789
 C          4.4717687689       -1.2178568010       -2.3615932297
 C          3.1857344731       -1.5859605558       -2.0139202706
 C          2.7843275258       -1.3839708973       -0.7012272119
 C         -2.5863053908        0.3037180534       -0.1126278830
 C         -3.1389127159        1.4198514413       -0.7745010980
 C         -2.3152281207        2.2439533192       -1.7208679251
 C         -4.4705153190        1.7578113613       -0.6014964585
 C         -5.3076966283        1.0301342262        0.2334359288
 C         -6.7387394477        1.4301241331        0.4267984553
 C         -4.7692967807       -0.0630900954        0.8893397336
 C         -3.4411802679       -0.4347076668        0.7238386909
 C         -2.9610131042       -1.6119656885        1.5232986700
 C          1.0083900466        1.2135858019       -1.2182711478
 C          0.8143035836        0.7045608730       -2.6183741135
 C          2.0940383466        2.0485112268       -0.9908439102
 H          3.1598544073        4.5933603729        0.4662957368
 H          3.9171288348        3.3481243557        1.4539096263
 H          4.2340310141        3.4115022095       -0.2875097048
 H          1.4802829797        2.9262521373        2.1891152412
 H         -0.3857005769        1.9474049944        3.0454545384
 H         -0.9534713146        0.4317639532        2.3417739522
 H         -1.6859112571        1.9539241366        1.8488583926
 H         -2.7295443040       -1.7208670326       -1.7178163306
 H         -2.3767254682       -3.9097684248       -2.7631024265
 H          1.6150991375       -3.9587854109       -1.2266267557
 H         -0.1916211528       -2.0090849788        2.0716256479
 H          0.4496779859       -1.3467962968        4.3606279994
 H          2.6339901642       -0.3378484519        4.8155139957
 H          4.2757282821       -0.0142656798        2.9949054346
 H          5.6278554296       -0.0255564033        0.5998802176
 H          6.3414407423       -0.3823414918       -1.7408357778
 H          4.8084611750       -1.3693475800       -3.3772803029
 H          2.5195380016       -2.0215093139       -2.7439028415
 H         -1.9584375571        1.6313873607       -2.5462152459
 H         -1.4473928471        2.6589554873       -1.2137860037
 H         -2.9048376333        3.0621888245       -2.1286379728
 H         -4.8714027720        2.6117027858       -1.1311583641
 H         -7.3312865128        0.5936731778        0.7906562438
 H         -6.8042071332        2.2368226596        1.1584465679
 H         -7.1689700935        1.7902197647       -0.5058420630
 H         -5.3979547994       -0.6481800720        1.5472264116
 H         -2.6570121427       -1.2843293987        2.5187045908
 H         -3.7616489261       -2.3392641923        1.6465185883
 H         -2.1170564371       -2.0998419013        1.0470000706
 H          0.1003269363       -0.1122937384       -2.6592328710
 H          0.4408761005        1.5150408915       -3.2463220282
 H          1.7627466340        0.3759423817       -3.0383756969
 H          2.7933698603        2.2270820325       -1.7965815290
