  62
 
 C         -5.0065695585       -4.5979172656        0.1372196084
 O         -4.6731292458       -3.4823534673        0.9247400877
 C         -3.5218822360       -2.8066073564        0.6414890154
 C         -2.6331753128       -3.1336588146       -0.3756982822
 C         -1.4954625238       -2.3703750418       -0.5690963854
 C         -1.2211710948       -1.2622678200        0.2252682573
 C          0.0000072602       -0.4726446811        0.0000111672
 C          0.0000028640        0.8803680987       -0.0000024459
 C         -1.2416788267        1.6685062261        0.0347753257
 C         -1.3430152255        2.7846987007        0.8666782136
 C         -2.4983297943        3.5315537309        0.9098866683
 C         -3.5901157071        3.1947002491        0.1081224896
 O         -4.6876206410        3.9948785179        0.2309773592
 C         -5.8275048190        3.6919985971       -0.5338892271
 C         -3.4892892813        2.1009799916       -0.7446256023
 C         -2.3271244523        1.3523954824       -0.7752238043
 C          1.2416817043        1.6685105924       -0.0347878756
 C          1.3430155432        2.7846955337       -0.8667011119
 C          2.4983274836        3.5315544577       -0.9099143487
 C          3.5901132391        3.1947125953       -0.1081450617
 O          4.6876157483        3.9948933164       -0.2310057562
 C          5.8274979708        3.6920272445        0.5338692562
 C          3.4892896392        2.1009994393        0.7446124832
 C          2.3271274323        1.3524112164        0.7752157516
 C          1.2211849410       -1.2622691244       -0.2252421768
 C          2.1122759373       -0.9520336614       -1.2539658687
 C          3.2417847128       -1.7103486785       -1.4598614747
 C          3.5218852703       -2.8066233402       -0.6414693281
 O          4.6731250799       -3.4823791002       -0.9247264749
 C          5.0065563272       -4.5979503676       -0.1372127705
 C          2.6331823980       -3.1336652855        0.3757245661
 C          1.4954750810       -2.3703741728        0.5691260081
 C         -2.1122651736       -0.9520238682        1.2539865339
 C         -3.2417791333       -1.7103320339        1.4598793689
 H         -5.1436626299       -4.3230020305       -0.9139899498
 H         -5.9488427160       -4.9704397544        0.5363352951
 H         -4.2480392483       -5.3844374966        0.2100666712
 H         -2.8125697072       -3.9779002232       -1.0232334732
 H         -0.8126992840       -2.6326996879       -1.3649068356
 H         -0.5064361630        3.0544253733        1.4949403016
 H         -2.5855013075        4.3877842253        1.5601994498
 H         -6.5729438765        4.4374476826       -0.2607113132
 H         -6.2132527265        2.6934779208       -0.3032183122
 H         -5.6233987963        3.7631029123       -1.6074977282
 H         -4.3063232388        1.8224026580       -1.3916561971
 H         -2.2595501616        0.5121427702       -1.4500770540
 H          0.5064358794        3.0544145056       -1.4949657038
 H          2.5854967844        4.3877795438       -1.5602345454
 H          6.5729337372        4.4374786099        0.2606885962
 H          5.6233859173        3.7631398750        1.6074760402
 H          6.2132534462        2.6935069160        0.3032093535
 H          4.3063238906        1.8224303124        1.3916462452
 H          2.2595548548        0.5121650454        1.4500773222
 H          1.9057494272       -0.1131634207       -1.9012201534
 H          3.9315284270       -1.4772010751       -2.2557685531
 H          4.2480146116       -5.3844598768       -0.2100570728
 H          5.9488212979       -4.9704841340       -0.5363372445
 H          5.1436614003       -4.3230411997        0.9139967907
 H          2.8125750570       -3.9779057713        1.0232614440
 H          0.8127142054       -2.6326924511        1.3649405916
 H         -1.9057371470       -0.1131523554        1.9012387125
 H         -3.9315255401       -1.4771777845        2.2557821570
