  51
 
 C         -4.5423721873        0.4698677125       -2.7344780868
 C         -3.3250686916        0.0785627146       -3.2714074788
 C         -2.2232316764       -0.1360509968       -2.4542717478
 C         -2.3673340915        0.0491433805       -1.0968744075
 C         -3.5960531617        0.4444391167       -0.5482792435
 C         -4.6909801974        0.6568370793       -1.3694900336
 C         -3.4416779798        0.5569556214        0.8935902827
 C         -4.3428756453        0.9081575566        1.8850230203
 C         -3.9067187402        0.9308371168        3.2001118004
 C         -2.5964181274        0.6101019598        3.5216715012
 C         -1.6875469730        0.2567966995        2.5332811254
 C         -2.1184561544        0.2324822365        1.2252880622
 C         -1.3306814894       -0.1193959125       -0.0143586669
 C         -0.7330294683       -1.4997029592        0.0278299790
 C         -1.4044716147       -2.6990827568        0.1081676731
 C         -0.6700173530       -3.8750475763        0.0557179073
 C          0.7051307820       -3.8311296793       -0.1080413917
 C          1.3805148483       -2.6233109964       -0.1814637132
 C          0.6665594007       -1.4390265997       -0.0764656483
 C          1.0651703594       -0.0371147440       -0.1456603187
 C         -0.1035708638        0.7385001281       -0.1908933905
 C         -0.1032117010        2.1093961708       -0.3795421043
 C          1.1010482019        2.7687945185       -0.5373783178
 C          2.2692858838        2.0284421019       -0.4331408381
 N          3.5551574068        2.4962909373       -0.5096598547
 C          4.4262010657        1.4697929268       -0.2680790538
 C          5.8105009557        1.5077555522       -0.2012496368
 C          6.4728979331        0.3414328225        0.1236085725
 C          5.7645585210       -0.8249389447        0.4005915133
 C          4.3866884334       -0.8652662923        0.3261123915
 C          3.6883374570        0.2798223117       -0.0455544618
 C          2.2963373258        0.6270650854       -0.1940437026
 H         -5.3859273446        0.6306453442       -3.3902161146
 H         -3.2332522804       -0.0613797961       -4.3385641729
 H         -1.2745521605       -0.4414394845       -2.8713682377
 H         -5.6410864426        0.9614294891       -0.9559003705
 H         -5.3643474195        1.1589043278        1.6395893348
 H         -4.5962300408        1.2020310047        3.9865154296
 H         -2.2790759353        0.6350558889        4.5538931963
 H         -0.6664887750        0.0067581648        2.7826348506
 H         -2.4811867692       -2.7197111906        0.1961488365
 H         -1.1746468808       -4.8278364746        0.1184880768
 H          1.2616080076       -4.7540451145       -0.1869411699
 H          2.4429143483       -2.6186211645       -0.3558857202
 H         -1.0374974587        2.6494872422       -0.4171236402
 H          1.1387251151        3.8323488336       -0.7194122458
 H          3.8128865400        3.4558340943       -0.6627233396
 H          6.3475012747        2.4268691045       -0.3848900294
 H          7.5510336863        0.3372789025        0.1848561286
 H          6.3063191862       -1.7139358888        0.6881465863
 H          3.8686318908       -1.7710775743        0.5920918694
