102
 xtb: 6.7.1 (edcfbbe)
C            7.59811306673625        4.45996189852499        0.86718786020520
C            7.23823558856650        3.71147504481929       -0.42149353393844
C            8.39718643769023        2.76147980981231       -0.76637326802011
C            7.06134161528496        4.74739142721525       -1.54447125529431
C            5.95865804800622        2.90000156236905       -0.28865403286483
C            5.21302713998605        2.84678825794309        0.88621681057903
C            4.05381467690551        2.09534089236574        0.96975489509247
C            3.60736546455241        1.37136300446241       -0.12917752283961
N            2.41127464887957        0.60114292172970       -0.05799407691799
C            2.52489488714260       -0.75960474616375        0.16346944688204
C            3.79108904308041       -1.30147276114050        0.39503761528207
C            3.95290598051881       -2.64799279119465        0.66810875065675
C            2.84709957836429       -3.50071865752395        0.74781271087271
C            3.06475459456066       -4.96630526559876        1.08931770840622
C            4.01126445432404       -5.59314069184593        0.05377563859767
C            1.76589677400742       -5.77750651754454        1.09298354930676
C            3.69262787103025       -5.05962443917413        2.48877405216003
C            1.59582271325255       -2.95151709492372        0.51898921954840
C            1.37581869442508       -1.60197970498958        0.18883096919274
B           -0.00007276748851       -0.96711957086614       -0.05899359583424
C           -1.38058089653899       -1.60875490562636       -0.26038318659715
C           -1.61495269016124       -2.95909712005551       -0.57774276973657
C           -2.87448559016639       -3.53523872689074       -0.62318428078181
C           -3.11155172747110       -4.99954130604799       -0.95608373682133
C           -4.03824497851526       -5.08636211764596       -2.17895759161313
C           -3.77481810659121       -5.69016848376802        0.24550488386729
C           -1.82009022301910       -5.75390395995925       -1.28460759580113
C           -3.97025659426888       -2.71885213253271       -0.32341650450462
C           -3.80337256916896       -1.36420817440006       -0.09520604501587
C           -2.53477592861024       -0.78100899360914       -0.12934533739351
N           -2.41780415761733        0.59293514852607       -0.02913043119399
C           -3.59910653185604        1.37183602054973        0.10445665514691
C           -3.89376219435500        1.98752963650396        1.31449889206007
C           -5.03425878198280        2.75894789220667        1.44777675474708
C           -5.91318841959629        2.94360229941942        0.38538719851722
C           -7.17519854445186        3.78568359536230        0.48924325439233
C           -7.09958561971393        4.92841991368965       -0.53475922044413
C           -8.39405796397078        2.89937070088590        0.19127583494195
C           -7.36080762285090        4.40199693017006        1.87916930208413
C           -5.60099832100382        2.31908062076511       -0.82304848887976
C           -4.46782599761449        1.54603650449657       -0.96875560074810
C           -1.21041252958435        1.27766680506447       -0.11970221939810
C           -1.21175254904600        2.66767544354438       -0.25694789790969
C           -0.01120595992907        3.35791603747678       -0.35464376122701
C            1.19466579122082        2.66916223933722       -0.29283245845790
C            1.20315360774540        1.28165419337687       -0.13376121835382
C           -0.00255310231295        0.54946010483311       -0.08538852730375
C            4.33955370729672        1.41336407192034       -1.31143713885278
C            5.49410391572553        2.16736962455183       -1.38214682241374
H            7.74118730672342        3.81854602844706        1.67801860604745
H            6.80973464345914        5.20108280331678        1.07227338773250
H            8.51551135089229        5.03738510783665        0.67244449862683
H            8.50901943871709        2.00785858833019        0.06984303983747
H            8.24738128297679        2.19437071115508       -1.66330834309141
H            9.33923262791772        3.28889655295369       -0.81845586546404
H            6.91032181968271        4.18691615982825       -2.53676431780256
H            7.99323403113100        5.29288210189904       -1.69585473712041
H            6.25345582869285        5.36555789468171       -1.40218969136830
H            5.49774501822480        3.45966801312801        1.72561041154338
H            3.45571145553441        2.14301337008716        1.86866744984387
H            4.65932506005379       -0.65401118105447        0.43046913454551
H            4.94741436611088       -3.00528139645501        0.88261660501209
H            4.17021163549086       -6.63318391336164        0.25904353908875
H            3.58907992178957       -5.48318506202653       -0.95033844482642
H            4.98251823696015       -5.08319123156971        0.05202360332598
H            1.06698055300507       -5.40305451131325        1.82493123630721
H            1.98800311425905       -6.81536401116660        1.31577737701186
H            1.29764485779389       -5.74422205019796        0.10030292472080
H            3.85240397996832       -6.11553729180816        2.74628947941216
H            3.02907035051175       -4.62775417832969        3.22852034609131
H            4.64677512642548       -4.55549711384795        2.53274538944110
H            0.72244654815933       -3.56957550744194        0.60067653313594
H           -0.74550010259491       -3.55205691617036       -0.80914003019359
H           -4.20231292968902       -6.11903328457935       -2.46870452131140
H           -3.57772543024708       -4.56995273718152       -3.04611063216221
H           -4.99439987801576       -4.61621364244723       -1.99830729149501
H           -4.72356712205497       -5.23640627343363        0.46943584697963
H           -3.12486083597371       -5.62713113816422        1.10005585237658
H           -3.93960604762732       -6.74374435886030       -0.00077012189964
H           -1.30418444101708       -5.29585285246438       -2.15446060468650
H           -2.04691130236377       -6.77906185343338       -1.56020726173277
H           -1.14043319237917       -5.75707287278564       -0.45095312444691
H           -4.96688733917249       -3.12648914847090       -0.29851028802191
H           -4.67793399777777       -0.76325318170630        0.09647885297735
H           -3.22656826747713        1.85329831189553        2.15614555010286
H           -5.23098935614951        3.20916094434691        2.41174818192720
H           -7.04152159220506        4.54745944620432       -1.54185356852527
H           -7.99188135669409        5.55180357331419       -0.45051991402424
H           -6.22957141651426        5.54283879160519       -0.33481922581265
H           -8.44829110002270        2.07017285620720        0.90601760480099
H           -9.31421064016518        3.47645523041109        0.28008512047044
H           -8.35039423288782        2.47833530720397       -0.80580532952423
H           -6.53870412561335        5.05268901512353        2.13997616344641
H           -7.45531587481244        3.62212808885374        2.64827452185149
H           -8.28101648126656        4.98519344863481        1.90241692407638
H           -6.25536815602831        2.43601924718204       -1.67081854892425
H           -4.24642915057457        1.07449173199866       -1.91043343969646
H           -2.14683041557399        3.21662316406448       -0.29966846488496
H           -0.02180640793321        4.43153262796279       -0.48873711667718
H            2.11107171996745        3.22527512603899       -0.39186573631628
H            4.02754804340236        0.78245898939917       -2.13137862787737
H            6.07348828841720        2.10205807860553       -2.29172666932272
