  98
 
 N         12.0893378660        2.2536483381       -0.8585421691
 C         11.0339905595        1.8143760778       -0.9491667759
 C          9.7313676862        1.2729493919       -1.0462285884
 C          9.0586630713        0.8780244159        0.0894752625
 C          7.7690895425        0.3307877117       -0.0228284680
 N          7.1516808861       -0.1741081789        1.0622789127
 C          5.9412177329       -0.6609824944        0.9394660272
 C          5.3934289977       -1.3692070014        2.0972751181
 C          4.6156388886       -2.5170590548        1.9417083299
 C          4.1369030177       -3.1846056753        3.0529368471
 C          4.4244696444       -2.7182864711        4.3264061746
 C          5.2115617523       -1.5887765402        4.4881154802
 C          5.7015406685       -0.9213152110        3.3819131366
 C          5.2286191122       -0.5294247360       -0.3096909500
 C          3.7926284722       -0.7702790576       -0.4325076488
 C          3.2916987489       -1.3513409703       -1.5984381032
 C          1.9391820911       -1.5771959963       -1.7439032837
 C          1.0559388242       -1.1939312045       -0.7351954476
 N         -0.3143179956       -1.4391418622       -0.8667049147
 C         -0.8383078877       -2.7166054647       -0.9631654748
 C         -0.1684223908       -3.9089588527       -1.1900343466
 C         -0.9011912596       -5.0796689699       -1.1728193809
 C         -2.2649330897       -5.0589814623       -0.8989685649
 C         -2.9288324289       -3.8750364418       -0.6457519216
 C         -2.2273963640       -2.6735809502       -0.7002310823
 C         -2.5511030012       -1.2921017522       -0.4476060568
 C         -3.7065438383       -0.5939102235       -0.0569032848
 C         -3.6306500622        0.7523780267        0.3768829028
 C         -4.9099078157        1.0681350189        0.9528664654
 C         -5.4202811646        2.1365233674        1.6856521217
 C         -6.7413611878        2.1069419142        2.0843222496
 C         -7.5683014329        1.0336772680        1.7640898403
 C         -7.0733275951       -0.0662811231        1.0912254977
 C         -5.7353053776       -0.0582608045        0.7262104534
 N         -4.9964476955       -1.0514713913        0.1124252327
 C         -5.5898104580       -2.1571717215       -0.5221589894
 C         -5.4331598758       -2.3310622788       -1.8945290661
 C         -6.0473758566       -3.3949379897       -2.5288019479
 C         -6.8292626520       -4.2813887653       -1.8056123898
 C         -6.9878681092       -4.1076463355       -0.4402949093
 C         -6.3700503730       -3.0509194711        0.2053669562
 C         -2.4542948940        1.4702070435        0.1102835496
 C         -1.2995223081        0.8232068465       -0.3910874384
 C         -0.3256484691        1.8521842154       -0.6393384581
 C          0.9237381274        1.9011554093       -1.2535863474
 C          1.5726358982        3.1141817822       -1.3669971564
 C          0.9891135530        4.2931706230       -0.9110713704
 C         -0.2739074354        4.2857422533       -0.3532133236
 C         -0.9208052557        3.0658333931       -0.2221325485
 N         -2.2006898297        2.8179025114        0.2339141815
 C         -3.1428747190        3.8537778806        0.3881428104
 C         -4.2317828151        3.9377438629       -0.4734493815
 C         -5.1313986198        4.9797364419       -0.3449002702
 C         -4.9454248991        5.9456099578        0.6308119902
 C         -3.8563184493        5.8669324780        1.4833445167
 C         -2.9538887110        4.8243158547        1.3662246456
 C         -1.3392180361       -0.5709963888       -0.5496191797
 C          1.5500358825       -0.5881540010        0.4205363255
 C          2.9039536906       -0.3822996251        0.5719329014
 N          5.8628606103       -0.1548748715       -1.3949431555
 C          7.1473608868        0.2366974027       -1.3005626815
 C          7.8545701354        0.6214765953       -2.4530918951
 C          9.1280268100        1.1323301143       -2.3309251283
 C          9.8498799936        1.5305127939       -3.4800663906
 N         10.4295214066        1.8479458990       -4.4171495044
 H          9.5127575706        0.9626223698        1.0649553870
 H          4.4074162348       -2.8979499820        0.9530026587
 H          3.5388806615       -4.0743227476        2.9239989271
 H          4.0421933093       -3.2395715623        5.1911630909
 H          5.4462666038       -1.2291328808        5.4787902546
 H          6.3166389812       -0.0413037880        3.4926215981
 H          3.9805240394       -1.6270931624       -2.3820507940
 H          1.5546303630       -2.0190319617       -2.6507387251
 H          0.8975220167       -3.9283527749       -1.3569514292
 H         -0.4057754522       -6.0219914327       -1.3548933940
 H         -2.8139162392       -5.9887532169       -0.8670280082
 H         -3.9739715024       -3.8995727677       -0.3946168277
 H         -4.7971036608        2.9694481309        1.9633026628
 H         -7.1415092733        2.9336091793        2.6530735482
 H         -8.6057122356        1.0511096839        2.0645947949
 H         -7.7107410728       -0.9063740010        0.8617748214
 H         -4.8243438415       -1.6340946367       -2.4511306029
 H         -5.9201947684       -3.5281642012       -3.5928386639
 H         -7.3120226371       -5.1082430453       -2.3045465633
 H         -7.5900303307       -4.8014107710        0.1278528491
 H         -6.4691031449       -2.9261020648        1.2734662465
 H          1.3800510274        1.0178249476       -1.6655142828
 H          2.5460845398        3.1504001752       -1.8349715708
 H          1.5190177714        5.2281787985       -1.0195995023
 H         -0.7507902212        5.2046761013       -0.0478523139
 H         -4.3661039003        3.1841667069       -1.2349995774
 H         -5.9779492129        5.0397800600       -1.0125417348
 H         -5.6484102382        6.7594160147        0.7269248351
 H         -3.7100879214        6.6171893845        2.2465329690
 H         -2.1102088661        4.7478569181        2.0366094961
 H          0.8631797048       -0.2806474845        1.1936900928
 H          3.2742472433        0.0989579656        1.4642722207
 H          7.3798422481        0.5287334945       -3.4179403982
