  126
 
 C         11.0371452831        0.5786002694        3.0403435835
 C          9.8491142934        0.8317530353        2.1597425683
 C          8.5902683130        0.3682843927        2.5578309572
 C          7.4588839706        0.5623354735        1.7917569330
 C          7.6020455829        1.2307238287        0.5844652484
 C          8.8567283934        1.7373239082        0.1790108912
 C          9.9783267259        1.5274345020        0.9709375585
 C          8.6346521056        2.4290926175       -1.0599311093
 C          9.4646955023        3.1169238514       -1.9360476853
 C          8.9261729758        3.6811803682       -3.0785382115
 C          9.7878749227        4.4352980629       -4.0479829111
 C          7.5582219000        3.5447835103       -3.3408421996
 C          6.7103217401        2.8649912849       -2.4904141564
 C          7.2551380671        2.3142694139       -1.3399800664
 N          6.6463425221        1.5729023260       -0.3483637976
 C          5.2831262444        1.2412532097       -0.3000689283
 C          4.3413285855        2.2656726892       -0.2344849496
 C          2.9957565190        1.9758816737       -0.1768098463
 C          2.5747472359        0.6474207257       -0.1839213333
 C          1.1515944174        0.3233593729       -0.1100829716
 N          0.8023981531       -0.9601434740       -0.1110112117
 C         -0.5023260660       -1.2085730695       -0.0359294915
 C         -0.9361143154       -2.6039072392       -0.0322167216
 C         -2.2874584529       -2.9205601509        0.0937053038
 C         -2.6802709626       -4.2408328985        0.1083295695
 C         -1.7377646890       -5.2606136538       -0.0046995486
 N         -2.1734341761       -6.5945606127        0.0220522309
 C         -1.8220356431       -7.5487914746        0.9529985241
 C         -1.0407134657       -7.4253354911        2.0927507157
 C         -0.8638742406       -8.5475339121        2.8762433951
 C         -1.4528667491       -9.7771523447        2.5615421558
 C         -1.2118857838      -10.9569487164        3.4565372250
 C         -2.2594593815       -9.8838767579        1.4426041906
 C         -2.4550888054       -8.7708565120        0.6350231295
 C         -3.2365727394       -8.5286618385       -0.5455599246
 C         -4.0607279991       -9.3254773238       -1.3301866402
 C         -4.6834863167       -8.7748555960       -2.4359604870
 C         -5.5859660680       -9.5996098107       -3.3056344142
 C         -4.4687652369       -7.4291007187       -2.7545099517
 C         -3.6533795315       -6.6146467137       -1.9955904000
 C         -3.0443255078       -7.1700952428       -0.8801924078
 C         -0.3795865963       -4.9582681690       -0.1682555327
 C          0.6356254709       -6.0391076756       -0.3812801616
 C         -0.0010951387       -3.6266249148       -0.1679711856
 N         -1.4366957342       -0.2650473270        0.0383424152
 C         -0.9984484276        0.9907179972        0.0307878919
 C         -1.9883089827        2.0624710811        0.1104424057
 C         -3.3449467371        1.7617129718        0.2173837774
 C         -4.2653035048        2.7830643636        0.3041003615
 C         -3.8502114570        4.1128244181        0.2839964801
 N         -4.8148821252        5.1276468086        0.3832723676
 C         -5.8463025372        5.3413534315       -0.5078298175
 C         -6.1572659353        4.6624769095       -1.6766013086
 C         -7.2408113685        5.1050786134       -2.4075124023
 C         -8.0107091876        6.2038496252       -2.0092445910
 C         -9.1769497423        6.6270856015       -2.8529429844
 C         -7.6854571508        6.8847291193       -0.8497904902
 C         -6.6015225389        6.4599820631       -0.0918856715
 C         -6.0009525842        6.9251823740        1.1270995426
 C         -6.3016623327        7.9530705789        2.0115649418
 C         -5.5289607817        8.1190785739        3.1470574889
 C         -5.8168159375        9.2207613003        4.1240051328
 C         -4.4709017599        7.2389679312        3.3997855039
 C         -4.1493117461        6.2090629160        2.5393471289
 C         -4.9067045436        6.0700511718        1.3853131928
 C         -2.4935277534        4.4319948794        0.1413456419
 C         -2.0391925760        5.8549991887        0.0290864711
 C         -1.5813097759        3.3933455261        0.0668871601
 N          0.2856437412        1.3304803340       -0.0429759582
 C          3.5193795643       -0.3715623175       -0.2729611316
 C          4.8747658736       -0.0981930763       -0.3418022083
 C          5.8695838443       -1.2071543524       -0.4983973866
 H         11.9355293500        1.0210239730        2.6175775300
 H         11.2013965053       -0.4921181697        3.1592659645
 H         10.8749051935        1.0016580321        4.0311736588
 H          8.5051234020       -0.1522395639        3.5012003666
 H          6.4912505406        0.2235571893        2.1314601135
 H         10.9393025358        1.9117309727        0.6616942030
 H         10.5201898356        3.2064976652       -1.7245598893
 H          9.4362690884        5.4613761336       -4.1518270401
 H         10.8221121019        4.4560798159       -3.7140227951
 H          9.7505664999        3.9703045376       -5.0327070057
 H          7.1576625585        3.9864730337       -4.2421506577
 H          5.6586817789        2.7624715416       -2.7139509518
 H          4.6857463430        3.2894728976       -0.2184411888
 H          2.2579862490        2.7595314729       -0.1170833444
 H         -3.0065611017       -2.1230015117        0.1873429513
 H         -3.7220909896       -4.5044110240        0.2184444962
 H         -0.6027980264       -6.4777817511        2.3698619271
 H         -0.2569518615       -8.4776451770        3.7678226790
 H         -1.7425559283      -11.8339871313        3.0949446678
 H         -0.1482659862      -11.1895492213        3.5018372327
 H         -1.5480526886      -10.7414680917        4.4703277603
 H         -2.7402094479      -10.8202961047        1.2001489845
 H         -4.2099846493      -10.3649141871       -1.0769855082
 H         -6.5929359191       -9.1831797331       -3.3117804574
 H         -5.6383311536      -10.6252746213       -2.9494678398
 H         -5.2234378179       -9.6067434563       -4.3330721015
 H         -4.9584593386       -7.0192255568       -3.6263348271
 H         -3.4923791864       -5.5805383977       -2.2621762945
 H          1.5099284480       -5.6382740388       -0.8880480237
 H          0.2172482697       -6.8461937983       -0.9802800527
 H          0.9581810300       -6.4674475517        0.5673887874
 H          1.0369931003       -3.3586226501       -0.2907230277
 H         -3.6533125651        0.7290232748        0.2390231235
 H         -5.3196132265        2.5679288174        0.3998517694
 H         -5.5692450647        3.8180064048       -2.0044520766
 H         -7.5064335787        4.5906839877       -3.3200547050
 H         -9.6654878105        7.5013922010       -2.4304328886
 H         -9.9077921217        5.8218918206       -2.9232326132
 H         -8.8491356206        6.8670498182       -3.8639298925
 H         -8.2651318108        7.7399097024       -0.5343983361
 H         -7.1363134489        8.6099774815        1.8150072003
 H         -6.6814823301        9.8009026129        3.8119917405
 H         -4.9611370794        9.8907193055        4.2049069303
 H         -6.0124717132        8.8110908376        5.1144274451
 H         -3.8937396748        7.3698903827        4.3041538287
 H         -3.3482386874        5.5217162989        2.7679974671
 H         -1.9360012072        6.3127306587        1.0126216937
 H         -1.0751650732        5.9029293789       -0.4710483066
 H         -2.7607726580        6.4451802367       -0.5333211432
 H         -0.5286104902        3.6037219049       -0.0429855739
 H          3.1704000627       -1.3922835198       -0.3015325023
 H          5.3864371659       -2.0901347527       -0.9091271031
 H          6.3120041947       -1.4755179110        0.4606483432
 H          6.6796551403       -0.9054563794       -1.1602696066
