  84
 
 O          7.3947387424       -1.3723857422       -2.4580808603
 C          6.9928944124       -1.0379309750       -1.3530890956
 C          7.9288652603       -0.8133581414       -0.2255283963
 C          7.5900068688       -1.1471490639        1.0853907273
 C          8.5051307553       -0.9595229858        2.1051352945
 C          9.7570322316       -0.4306131389        1.8316627536
 C         10.1039992633       -0.1059787794        0.5292480856
 C          9.1997580981       -0.3075415142       -0.4961649392
 C          5.5484320816       -0.8399456723       -1.0869548041
 C          5.0896308008        0.1063632905       -0.1704247687
 C          3.7357031121        0.2915038647        0.0225886046
 C          2.8128251873       -0.4688129204       -0.6949354446
 N          1.4405146117       -0.2830508262       -0.4953715692
 C          0.5119120169       -1.2823522542       -0.2761856671
 C          0.6965853863       -2.6515303262       -0.1368494056
 C         -0.4110952414       -3.4341822869        0.1167401784
 C         -1.6913192460       -2.8763855461        0.2259370623
 N         -2.7905774643       -3.7176935927        0.4716173719
 C         -3.7129726286       -3.5678307295        1.4868503749
 C         -3.7711635365       -2.6166133227        2.4963169652
 C         -4.8025403762       -2.7080864746        3.4112348179
 C         -5.7544680303       -3.7234720070        3.3361811612
 C         -5.6907000612       -4.6842940871        2.3466628342
 C         -4.6629601006       -4.6137118931        1.4145133702
 C         -4.2886191897       -5.4269456111        0.2916118870
 C         -4.8299068554       -6.5681887938       -0.2869021741
 C         -4.2161192630       -7.0994047414       -1.4038777751
 C         -3.0840536319       -6.4995247976       -1.9530347432
 C         -2.5268094205       -5.3646214366       -1.3957152924
 C         -3.1265494682       -4.8380986139       -0.2598016729
 C         -1.8782921750       -1.5068784541        0.1097780104
 C         -0.7709323542       -0.7058999520       -0.1287362147
 C         -0.6000857372        0.7126865291       -0.2755711936
 C         -1.4844220602        1.7812305532       -0.2438369391
 C         -0.9875441698        3.0572615425       -0.4640406847
 N         -1.8559869442        4.1628067785       -0.4492195484
 C         -3.0142853297        4.2889690694       -1.1881203774
 C         -3.5743057017        3.4152388356       -2.1100832719
 C         -4.7442009498        3.8002826112       -2.7363287559
 C         -5.3466741926        5.0270404961       -2.4624915876
 C         -4.7838654822        5.9091059102       -1.5615931882
 C         -3.6069550099        5.5451298706       -0.9191885488
 C         -2.7562369747        6.2008096430        0.0342287259
 C         -2.8105687590        7.4295013409        0.6804164395
 C         -1.8105776358        7.7514528375        1.5764680393
 C         -0.7715979498        6.8608768400        1.8413728036
 C         -0.6952227875        5.6335571109        1.2114096946
 C         -1.6862526994        5.3125082982        0.2938091104
 C          0.3745310769        3.2589369833       -0.7207850539
 C          1.2680510028        2.2077739789       -0.7381915342
 C          0.7793826148        0.9303578349       -0.4981056985
 C          3.2665698733       -1.4089461143       -1.6197968795
 C          4.6199176836       -1.5822948193       -1.8175473359
 H          6.6218251513       -1.5756723932        1.2982209718
 H          8.2413428300       -1.2269027995        3.1177262939
 H         10.4653810686       -0.2786626993        2.6325713066
 H         11.0815173662        0.2988710400        0.3131132037
 H          9.4552949539       -0.0679457084       -1.5184468716
 H          5.7958541086        0.7089465019        0.3803884186
 H          3.3848847688        1.0147220284        0.7427882389
 H          1.6769734445       -3.0966620765       -0.2031454222
 H         -0.2961769603       -4.4996067978        0.2472023142
 H         -3.0309550807       -1.8342198905        2.5716334059
 H         -4.8714411536       -1.9777224894        4.2045503342
 H         -6.5475022459       -3.7591169037        4.0689529221
 H         -6.4206901893       -5.4786454347        2.2969266963
 H         -5.7155908780       -7.0250996697        0.1292925163
 H         -4.6202046407       -7.9877922782       -1.8671481486
 H         -2.6347296309       -6.9301206165       -2.8363536082
 H         -1.6585305344       -4.8982204206       -1.8366225056
 H         -2.8646641159       -1.0787253695        0.1979099449
 H         -2.5347507630        1.6274775698       -0.0508787310
 H         -3.1072345892        2.4693088583       -2.3400629961
 H         -5.2011613768        3.1370669611       -3.4566317145
 H         -6.2626377810        5.2904716207       -2.9711268309
 H         -5.2440259592        6.8652841248       -1.3605298399
 H         -3.6222472768        8.1147642556        0.4855028865
 H         -1.8336377043        8.7029691849        2.0874679870
 H         -0.0107190049        7.1359452536        2.5574828791
 H          0.1060324630        4.9446145513        1.4327216771
 H          0.7214398124        4.2610601810       -0.9226684867
 H          2.3104565254        2.3799624015       -0.9559338946
 H          2.5542727669       -1.9798029834       -2.1956675489
 H          4.9830029714       -2.2966976073       -2.5418552903
