  85
 
 C         -7.7008825591       -4.1216511406        1.3028769110
 O         -6.9896326242       -2.9398679684        1.5731753711
 C         -5.7164235036       -2.8260541885        1.0942627292
 C         -5.0709707621       -1.6205435674        1.4108540775
 C         -3.7865673447       -1.3511090589        0.9927458400
 C         -3.1349235329       -2.3089023290        0.2278652756
 C         -3.7609775650       -3.5356706529       -0.0685457778
 C         -5.0577311824       -3.7982173754        0.3590653838
 C         -2.8081515290       -4.3165703726       -0.8073522747
 C         -2.8549939030       -5.5789848376       -1.3837842989
 C         -1.7468857582       -6.0357449846       -2.0685777771
 C         -0.6101419929       -5.2418858957       -2.1984770686
 C         -0.5401308326       -3.9823159831       -1.6338320898
 C         -1.6387524154       -3.5301971554       -0.9172896916
 N         -1.8463210794       -2.3152338403       -0.2877668308
 C         -0.9264235418       -1.2752692287       -0.1935245049
 C         -1.3194764842        0.0328538990       -0.4673042873
 C         -0.4133028659        1.0779514128       -0.3616955100
 N         -0.8322942924        2.3823106280       -0.6177880233
 C         -1.4705696691        2.8101699125       -1.7666939959
 C         -1.7980568756        2.0986243518       -2.9108793884
 C         -2.4131337510        2.7839395055       -3.9415372432
 C         -2.6889632322        4.1456332591       -3.8453822963
 C         -2.3453618188        4.8622972696       -2.7163484526
 C         -1.7284630124        4.1960061253       -1.6657972048
 C         -1.2363818872        4.6126167463       -0.3819089410
 C         -1.2464824481        5.8374109072        0.2764808944
 C         -0.7188713597        5.8988781031        1.5558214832
 O         -0.6601904840        7.0290615468        2.3200146917
 C         -1.1298163792        8.2325139533        1.7668282568
 C         -0.2107214536        4.7434551363        2.1697345922
 C         -0.1952674648        3.5260524674        1.5270383492
 C         -0.6904158013        3.4693200330        0.2324224549
 C          0.9230573335        0.8148680088       -0.0080868865
 C          1.8571931945        1.8691349059        0.0835278116
 N          2.6167972068        2.7253676352        0.1572371482
 C          1.3194213564       -0.5096971328        0.2528536708
 N          2.6385441375       -0.7971569311        0.5998312085
 C          3.0398725205       -1.4890851419        1.7269419459
 C          2.2768549409       -2.0035352873        2.7641965839
 C          2.9400698664       -2.6320783410        3.8011469174
 C          4.3284873619       -2.7402957392        3.8155365024
 C          5.0932072268       -2.2109620460        2.7950552249
 C          4.4503473257       -1.5765050691        1.7403408232
 C          4.9134661756       -0.9199259556        0.5493547582
 C          6.1827418597       -0.7277249757        0.0147958200
 C          6.2899246760       -0.0770695802       -1.2033898156
 O          7.4664453239        0.1819836212       -1.8465305222
 C          8.6657223868       -0.1984154688       -1.2205411254
 C          5.1387060000        0.3528393487       -1.8816200158
 C          3.8774333902        0.1683415869       -1.3614821771
 C          3.7695852192       -0.4516736739       -0.1252021021
 C          0.3911794024       -1.5376958439        0.1749520556
 H         -8.6775931706       -3.9910280027        1.7660713293
 H         -7.2085144073       -4.9968959942        1.7398407380
 H         -7.8295376996       -4.2769020901        0.2264388810
 H         -5.6162015226       -0.9034571012        2.0032233847
 H         -3.3081632692       -0.4250758400        1.2715848176
 H         -5.5145281554       -4.7442193342        0.1183449522
 H         -3.7443785822       -6.1850268036       -1.3007396442
 H         -1.7612266918       -7.0157090586       -2.5213751097
 H          0.2351718872       -5.6159449237       -2.7565865238
 H          0.3398268168       -3.3709959523       -1.7646052019
 H         -2.3354181409        0.2418162868       -0.7630316673
 H         -1.5740791250        1.0460281996       -3.0024641533
 H         -2.6820738409        2.2519058792       -4.8420019370
 H         -3.1713387973        4.6453855430       -4.6720420981
 H         -2.5463496996        5.9207406162       -2.6495205082
 H         -1.6660307938        6.7002953356       -0.2145222281
 H         -0.5757385570        8.5025576524        0.8617441412
 H         -0.9649791122        8.9923731378        2.5292101845
 H         -2.1993306325        8.1798133578        1.5358354921
 H          0.1711444921        4.8383601301        3.1732918673
 H          0.1892132698        2.6510171698        2.0281451605
 H          1.2008046455       -1.9108652414        2.7708999270
 H          2.3686912614       -3.0447705913        4.6193246223
 H          4.8097226462       -3.2391896003        4.6433810427
 H          6.1700764461       -2.2825551948        2.8152942744
 H          7.0446045004       -1.0911144902        0.5503590034
 H          9.4629537925        0.1234437460       -1.8888331397
 H          8.7239666639       -1.2841093804       -1.0867184951
 H          8.7868844333        0.2940338671       -0.2500298506
 H          5.2729214980        0.8372922098       -2.8351719330
 H          3.0087124919        0.4973034625       -1.9107867503
 H          0.6994098542       -2.5460995930        0.4018249427
