  69
 
 C         -8.0951924196       -3.7247405602       -1.1427622764
 C         -6.8058996507       -3.6813472853       -0.6526324480
 C         -6.2291883840       -2.4699977713       -0.3021545815
 C         -6.9296988067       -1.2792443385       -0.4478644834
 C         -8.2507798102       -1.3384596669       -0.9112103881
 C         -8.8203197535       -2.5485585257       -1.2616960082
 O         -9.0432698024       -0.2240936894       -1.0233584137
 C         -8.4938441346        0.9823903202       -0.6686381549
 C         -9.3009737298        2.0977458149       -0.7960966667
 C         -8.8079559519        3.3577938796       -0.4921714527
 C         -7.4981075032        3.4930542898       -0.0794646203
 C         -6.6852401189        2.3774472647        0.0522913430
 C         -7.1736503346        1.1047665940       -0.2154477362
 N         -6.3802372203       -0.0416496437       -0.0995125248
 C         -5.0485629869        0.0536785492        0.3456237048
 C         -4.7690635896        0.5391197687        1.6237378111
 C         -3.4656091592        0.6514084053        2.0544429411
 C         -2.4168324360        0.2784023199        1.2112775580
 C         -1.0580397664        0.4286778407        1.6671002916
 N         -0.6684650998        0.8769740318        2.8266458729
 N          0.6677191441        0.8766739862        2.8270428702
 C          1.0577828115        0.4281816995        1.6677387551
 C          2.4167804954        0.2774911885        1.2126550717
 C          2.6957464718       -0.2192320840       -0.0607934290
 C          4.0017571114       -0.3302327656       -0.4885238774
 C          5.0488385083        0.0532467381        0.3479182494
 N          6.3806579005       -0.0410391421       -0.0970394361
 C          7.1725642850        1.1062785013       -0.2144338780
 C          6.6829221074        2.3785299260        0.0530916656
 C          7.4943130674        3.4950337868       -0.0801596138
 C          8.8038833063        3.3611072328       -0.4941733028
 C          9.2981042153        2.1014653153       -0.7978314223
 C          8.4924588831        0.9852119039       -0.6688506116
 O          9.0430088500       -0.2208307353       -1.0233450869
 C          8.2519266245       -1.3360667821       -0.9098943321
 C          8.8225120901       -2.5456875791       -1.2603204725
 C          8.0988231535       -3.7226305712       -1.1401197362
 C          6.8099319191       -3.6804669667       -0.6488213227
 C          6.2321618584       -2.4695984906       -0.2984181019
 C          6.9312082953       -1.2781384649       -0.4453573480
 C          4.7687949597        0.5390970452        1.6257535867
 C          3.4651695668        0.6511374878        2.0560160320
 O          0.0000376512        0.1199615142        0.8781328059
 C         -2.6952279661       -0.2175250001       -0.0626050291
 C         -4.0010684592       -0.3287227271       -0.4908019225
 H         -8.5468702725       -4.6636230766       -1.4212732593
 H         -6.2360213358       -4.5898785658       -0.5330738238
 H         -5.2276504969       -2.4534409464        0.0981777248
 H         -9.8371240819       -2.5485097037       -1.6204263933
 H        -10.3126875181        1.9579180137       -1.1417348233
 H         -9.4457336057        4.2217195401       -0.5917897874
 H         -7.0922957745        4.4683182927        0.1408427899
 H         -5.6585020324        2.5019749827        0.3583435493
 H         -5.5851330104        0.8212640608        2.2719773732
 H         -3.2307209537        1.0218164207        3.0392444369
 H          1.8841438602       -0.5043899638       -0.7130080174
 H          4.2222614820       -0.7023745359       -1.4780742276
 H          5.6563605949        2.5020316056        0.3601425051
 H          7.0875519061        4.4699346345        0.1400056779
 H          9.4405046977        4.2257444591       -0.5950044567
 H         10.3096238766        1.9626489497       -1.1444437252
 H          9.8389707787       -2.5446664023       -1.6200291682
 H          8.5513121515       -4.6611364587       -1.4185863906
 H          6.2412126864       -4.5895951509       -0.5282835197
 H          5.2309598495       -2.4539260584        0.1028011044
 H          5.5845765485        0.8218896639        2.2740721789
 H          3.2298460116        1.0219874062        3.0405475225
 H         -1.8833245673       -0.5020076306       -0.7147409686
 H         -4.2211329869       -0.7003141512       -1.4806561829
