  70
 
 C          6.7011065049        0.0463995359       -1.1038764408
 C          5.8264120759       -1.0418333974       -0.4759320512
 C          6.1788407727       -1.1384775643        1.0162897777
 C          6.1450288358       -2.3733816663       -1.1719162153
 C          4.3435632132       -0.7505254276       -0.6095273054
 C          3.8440586015        0.4099909379       -1.2050479990
 C          2.4929366859        0.6509640043       -1.2874055647
 C          1.5744587560       -0.2768514986       -0.7773999319
 O          0.2701335724        0.0719332166       -0.8183428451
 C         -0.7415474972       -0.8050599362       -0.6712445821
 C         -0.7667035276       -2.1135886677       -1.1478569546
 C         -1.8413594393       -2.9331778091       -0.9281900082
 C         -2.9689672175       -2.4833247785       -0.1061804596
 C         -4.1306072118       -3.3875990585        0.2296743956
 C         -5.4366794920       -2.7300871914       -0.2452752979
 C         -4.1833488710       -3.5741402305        1.7568482470
 C         -4.0232156010       -4.7707337900       -0.4177712690
 C         -2.9315670296       -1.1920723210        0.3740266246
 C         -1.8864686072       -0.3122026895        0.1234189131
 P         -1.8522453315        1.2627506005        0.9702054755
 O         -2.8168885784        1.3387507692        2.0759598866
 C         -0.1128014339        1.4705706454        1.5096258997
 C          0.4084606658        0.4355177677        2.2759257243
 C          1.7349699641        0.4540082106        2.6597205059
 C          2.5469487385        1.5114009031        2.2770659627
 C          2.0234013162        2.5537116425        1.5312958370
 C          0.6933661059        2.5380295257        1.1471103861
 C         -2.1675018794        2.5235201082       -0.3096725755
 C         -1.4149549571        2.6612819591       -1.4720697048
 C         -1.7709781216        3.6095620857       -2.4113230741
 C         -2.8846994033        4.4121506985       -2.2098187751
 C         -3.6459159220        4.2633648773       -1.0604921943
 C         -3.2924348257        3.3182988621       -0.1166785272
 C          2.0582720356       -1.4463532888       -0.1775812359
 C          3.4128665439       -1.6613144498       -0.0973003131
 H          6.4977295583        0.1468637093       -2.1674317045
 H          7.7494887308       -0.2197637861       -0.9864780977
 H          6.5428809458        1.0057285017       -0.6170436609
 H          5.6336741879       -1.9429665199        1.5016089362
 H          7.2434787921       -1.3259128207        1.1373288084
 H          5.9319119684       -0.2066728730        1.5204181509
 H          5.8785270911       -2.3195949281       -2.2253369881
 H          5.5983702113       -3.1980189097       -0.7235493472
 H          7.2084269011       -2.5890452800       -1.0954622602
 H          4.5161878487        1.1476024931       -1.6106466847
 H          2.1187796883        1.5554267368       -1.7411783188
 H          0.0538189958       -2.4518384784       -1.7678587236
 H         -1.8749985182       -3.8983510527       -1.3987784726
 H         -5.4083477598       -2.5733774443       -1.3214937793
 H         -5.5922334559       -1.7689779864        0.2355052215
 H         -6.2826904532       -3.3722965597       -0.0100542948
 H         -5.0212534796       -4.2144704264        2.0238722723
 H         -3.2653383854       -4.0389723322        2.1101955393
 H         -4.3015093501       -2.6214201896        2.2642854314
 H         -4.8855536461       -5.3704885590       -0.1338112419
 H         -4.0105970084       -4.6949161401       -1.5026291123
 H         -3.1285092503       -5.2915944691       -0.0851119130
 H         -3.7164323263       -0.8139734111        1.0143015910
 H         -0.2452334009       -0.3816071248        2.5562600641
 H          2.1418912054       -0.3546766138        3.2496178171
 H          3.5880326741        1.5226393100        2.5648022652
 H          2.6556518216        3.3819102472        1.2444317810
 H          0.2799460280        3.3503317459        0.5658306511
 H         -0.5519009218        2.0339384754       -1.6313839634
 H         -1.1802475831        3.7243421083       -3.3094127980
 H         -3.1599420689        5.1485804015       -2.9506708987
 H         -4.5142879020        4.8865110968       -0.9019710731
 H         -3.8663563117        3.1883860562        0.7891510507
 H          1.3651052158       -2.1435077541        0.2686775221
 H          3.7552401764       -2.5590923776        0.3941237555
