  55
 
 C         -5.1098242114       -0.5173358624        3.5713277084
 C         -3.7308229715       -0.5113865042        3.6048555478
 C         -3.0016698426       -0.4870134643        2.4246880073
 C         -3.6479601903       -0.4684367209        1.1965383627
 C         -5.0492919976       -0.4742339818        1.1704504177
 C         -5.7688863370       -0.4987882030        2.3489345475
 O         -5.7624312142       -0.4553074405       -0.0050105039
 C         -5.0488529587       -0.4405974402       -1.1802659705
 C         -5.7680262000       -0.4320573305       -2.3592324300
 C         -5.1085317797       -0.4162801008       -3.5814306144
 C         -3.7295174507       -0.4096265795       -3.6142883300
 C         -3.0007825492       -0.4184112493       -2.4336401912
 C         -3.6475067161       -0.4338535487       -1.2056756089
 N         -2.9457507193       -0.4397399993       -0.0042725562
 C         -1.5260487837       -0.4554779172       -0.0041195475
 C         -0.8445908975       -1.6722329012       -0.0145427379
 C          0.5294517050       -1.6680763854       -0.0145764384
 C          1.2436687277       -0.4664297973       -0.0038527015
 C          0.5656106363        0.7686077397        0.0074061118
 C         -0.8326719214        0.7391993957        0.0065728519
 C          1.3193524128        2.0147155983        0.0198663505
 C          0.6988040522        3.2692293335        0.0325087146
 C          1.4345594146        4.4341754708        0.0446796857
 C          2.8240972069        4.3903210542        0.0446357848
 C          3.4616091507        3.1716670719        0.0323068796
 C          2.7277507078        1.9824850973        0.0199415518
 C          3.4296615261        0.7172533194        0.0072797978
 N          4.7490480138        0.7166695240        0.0069477596
 C          5.3791117586       -0.4661543219       -0.0050200784
 C          6.7898552826       -0.5131497718       -0.0059608164
 C          7.4282136242       -1.7197681517       -0.0183326734
 C          6.6978991177       -2.9241697678       -0.0302147187
 C          5.3328211959       -2.9159591091       -0.0296042149
 C          4.6391549411       -1.6867063261       -0.0169630020
 N          3.2989172476       -1.6742825851       -0.0162918831
 C          2.6900026966       -0.5039269368       -0.0045262473
 H         -5.6814499056       -0.5362823875        4.4858329961
 H         -3.2070163363       -0.5256178356        4.5483622086
 H         -1.9226422901       -0.4827618010        2.4547815990
 H         -6.8457086706       -0.5030364429        2.2923701313
 H         -6.8448680772       -0.4380585693       -2.3031888962
 H         -5.6798338973       -0.4096077010       -4.4963106574
 H         -3.2053762993       -0.3977343265       -4.5576426297
 H         -1.9217402340       -0.4139716821       -2.4632263339
 H         -1.4024677572       -2.5963478105       -0.0225908537
 H          1.0924740623       -2.5878763213       -0.0229086434
 H         -1.4074602440        1.6515022108        0.0143803028
 H         -0.3767569267        3.3435250724        0.0329710765
 H          0.9255052986        5.3867966370        0.0543264160
 H          3.3955039477        5.3062819857        0.0543233189
 H          4.5377157341        3.0986744130        0.0319686770
 H          7.3307261654        0.4204276630        0.0032207862
 H          8.5075390924       -1.7620166086       -0.0192316145
 H          7.2343677328       -3.8616272347       -0.0399629932
 H          4.7550639276       -3.8271914687       -0.0385897054
