87
 xtb: 6.7.1 (edcfbbe)
C            7.15734979410070        2.79641668307977        0.27511746433648
C            5.89300536043970        2.11119570841050       -0.14117782860471
C            4.85434817733799        2.86315529416176       -0.69934685368365
C            3.66090705216605        2.28831402130778       -1.09407941162067
C            3.51453440460917        0.91696931104988       -0.93608789826956
C            4.54801556361785        0.13992645780284       -0.35918481756528
C            5.73267034299745        0.74127481248265        0.03349433788569
C            4.06692492218284       -1.21518906996210       -0.32648941229688
C            4.62424262498379       -2.41682781749256        0.07735714241004
C            3.90271017418528       -3.59457915349930       -0.09335421234839
C            4.46586271502451       -4.90918992416069        0.34916533331752
C            2.64129225215992       -3.55268146999760       -0.69784403850764
C            2.06296348282507       -2.36664051238012       -1.10455817624463
C            2.76385409496772       -1.18932806575525       -0.88244135380622
N            2.43897836639975        0.10303925347546       -1.22682166600820
C            1.21782440150731        0.52529310995857       -1.76100109161905
C            1.21398659820279        1.31193052738944       -2.89630451552852
C            0.01350672045463        1.72975739897865       -3.47210505752946
C           -1.19137566848349        1.31817039982249       -2.90274834593117
C           -1.20532267643247        0.53086240627441       -1.76738905990259
N           -2.42957401613764        0.11608575175251       -1.23978047513751
C           -2.75640668915790       -1.17309675731572       -0.88072147395879
C           -2.05404775009132       -2.35289565024654       -1.08369039563787
C           -2.63386002117483       -3.53375841029453       -0.66410136877980
C           -3.89821986749868       -3.56801186692549       -0.06473584981655
C           -4.46333621775445       -4.87729195511198        0.39076477926344
C           -4.61996778069291       -2.38816257138203        0.08916481533548
C           -4.06098439710602       -1.19152240420665       -0.32680153560555
C           -4.53827459061850        0.16430743400603       -0.37002907188147
C           -5.71777959693062        0.77355069061892        0.02588050739844
C           -5.87108772846777        2.14398996612162       -0.15151528347220
C           -7.12831777410955        2.83767836523357        0.27212851593369
C           -4.83089488924158        2.88871053619899       -0.71633646782856
C           -3.64243604325487        2.30584575076315       -1.11505693469547
C           -3.50272021615291        0.93444213739183       -0.95281484196656
C            0.00364546214637        0.09629109687029       -1.13994216258676
P            0.00791817379702       -0.35013202764388        0.63969385066236
O            0.04278976836922       -1.80388960093057        0.90742469372100
C            1.40072705909002        0.50303988685338        1.42441313133520
C            2.25188554683638       -0.28188458921438        2.20252773557715
C            3.31000037662609        0.28667727064596        2.87905354652089
C            3.53276579150237        1.65556882530255        2.79643121952565
C            2.69580405422997        2.44186944049943        2.01724351932386
C            1.64377432679977        1.87432762658271        1.32826792852493
C           -1.42286146787505        0.43613090441232        1.43606608446065
C           -1.70678648953936        1.80219551992612        1.38778063858753
C           -2.78413408059556        2.31169131098673        2.08280387212423
C           -3.60670112861609        1.47242564309148        2.82168399932838
C           -3.33983955501780        0.10964739024468        2.86120356147002
C           -2.25676260413247       -0.40131938532625        2.17823706415417
H            7.88579483132110        2.09537810362154        0.62750993906556
H            6.94137424707638        3.52133862532619        1.07407613852438
H            7.57247767884882        3.36989319019552       -0.56011333129641
H            4.97987700047667        3.93836813137588       -0.82261398928696
H            2.85992595298552        2.89877437549211       -1.50937011631754
H            6.51757132714857        0.16469304661483        0.47486287603873
H            5.61111000859514       -2.42668502688762        0.51915292353593
H            5.49412660171072       -4.78844440312419        0.69979579451410
H            4.43375672196988       -5.62272044210257       -0.44767546981375
H            3.87200285461593       -5.29628219510561        1.18621680361846
H            2.10329642359190       -4.47076384016988       -0.83258851605110
H            1.09596246683997       -2.35154068018130       -1.57625178014332
H            2.14518782802984        1.56933771445082       -3.36967365808173
H            0.00693091485717        2.32715175522423       -4.36870289673822
H           -2.13446345429149        1.57157148222199       -3.37513024848385
H           -1.08818576994606       -2.34957627988822       -1.56872923896032
H           -2.09478344883165       -4.46653176681095       -0.81798218945817
H           -3.86131036583500       -5.29132621321939        1.19240844099249
H           -4.43467656382153       -5.61577815401500       -0.43783965368253
H           -5.48562960900026       -4.77972316310363        0.71682827730253
H           -5.60716082158365       -2.42025810673936        0.51878842763536
H           -6.51224321599951        0.17175327861333        0.47099784456587
H           -6.93086238455383        3.52710802737520        1.07119777944476
H           -7.56403608507011        3.37981012666267       -0.56256449112083
H           -7.87855047904554        2.10382157951051        0.62320469946956
H           -4.97231343501470        3.94290372392223       -0.83125358499331
H           -2.85426744652695        2.90058767763982       -1.51977420132197
H            2.04836457105840       -1.37917277836742        2.24237679432970
H            3.96407567260122       -0.39848163080739        3.46827083481261
H            4.37897621207163        2.03752619561482        3.34784134447321
H            2.90585559868868        3.46577458578510        1.97619533863134
H            1.04179288714756        2.48198256037708        0.72630959429208
H           -1.07047012367620        2.47039267626056        0.76090316549440
H           -2.95420060895063        3.41394670796182        2.01138454494519
H           -4.41926244881981        1.94925603145582        3.35320780273628
H           -3.97289699077278       -0.48247075749894        3.44628956525325
H           -2.03846730968987       -1.42300429464609        2.21901077730651
