  102
 
 C          9.9354850765       -3.5950715633       -2.7451199679
 C          8.5679448919       -3.6542629672       -2.5670921313
 C          7.9327405034       -2.7686985103       -1.7094087160
 C          8.6575979282       -1.8146809291       -1.0051212377
 C         10.0409695745       -1.7432349421       -1.2176808754
 C         10.6702242323       -2.6288479679       -2.0729262340
 O         10.8327510915       -0.7947328068       -0.6128037466
 C         10.2155583345        0.1000965239        0.2304446096
 C         11.0226471925        1.0447041766        0.8371544442
 C         10.4807419299        1.9618965747        1.7261672256
 C          9.1315353236        1.9131525493        2.0136582934
 C          8.3177242602        0.9691904569        1.4053698709
 C          8.8387016806        0.0633082820        0.4891449169
 N          8.0478752174       -0.9024874880       -0.1396438570
 C          6.6596027852       -0.9634102075        0.1055118202
 C          6.1052853359       -2.0835209501        0.7232619400
 C          4.7491663367       -2.1414706516        0.9658515990
 C          3.9221824808       -1.0792794163        0.5966412201
 C          2.4916878354       -1.1385744726        0.8596517560
 N          2.0127551792       -2.1324274724        1.6207436108
 N          0.7420621645       -2.3492503107        1.5882995483
 C         -0.1054595949       -1.5388556557        0.9733011677
 C         -1.4794386736       -1.9882602554        0.7985138876
 C         -2.0480111240       -2.8694095543        1.7201732327
 C         -3.3518651313       -3.2934772799        1.5708703445
 C         -4.1102880221       -2.8573960895        0.4862808852
 N         -5.4495721107       -3.2764399528        0.3367272036
 C         -5.7568630790       -4.6239293390        0.1312791906
 C         -4.7746254632       -5.5996848137        0.0122646226
 C         -5.1137721979       -6.9287230706       -0.1925274478
 C         -6.4384343923       -7.3042775316       -0.2906791141
 C         -7.4304006892       -6.3376098428       -0.2061013905
 C         -7.0968673560       -5.0110404810       -0.0054754485
 O         -8.1343828123       -4.1078401323        0.0328745979
 C         -7.8135667564       -2.7844113688        0.2284195751
 C         -8.8635938561       -1.8860510047        0.2752419186
 C         -8.6234210732       -0.5383267653        0.5027170876
 C         -7.3288328787       -0.1027949223        0.7018701187
 C         -6.2727250794       -1.0002114411        0.6514537922
 C         -6.4921418017       -2.3476977720        0.3923063537
 C         -3.5365331586       -2.0032302237       -0.4535575890
 C         -2.2357326935       -1.5723256908       -0.2990239626
 C          0.4005788099       -0.2683865442        0.5639953733
 C         -0.4181903047        0.9206571526        0.3629664233
 C         -1.5841574940        1.1357109383        1.1001097413
 C         -2.3464765049        2.2640514096        0.8841166348
 C         -1.9662910276        3.1981590414       -0.0788870913
 N         -2.7596810551        4.3385834964       -0.3148323764
 C         -4.0695385640        4.2104146860       -0.7884474745
 C         -4.6421395355        2.9759144801       -1.0704762942
 C         -5.9425659051        2.8837259445       -1.5432277443
 C         -6.6905312174        4.0247531779       -1.7533235622
 C         -6.1234087110        5.2671243758       -1.5090051527
 C         -4.8259679390        5.3629719062       -1.0400065506
 O         -4.3244623863        6.6305394979       -0.8574347785
 C         -3.0354819895        6.7394712617       -0.3904651204
 C         -2.5487777486        8.0186393552       -0.1927851080
 C         -1.2698656339        8.2116561540        0.3090515711
 C         -0.4936422770        7.1160120745        0.6295478069
 C         -0.9768703873        5.8315886221        0.4305917678
 C         -2.2421038648        5.6204943954       -0.1043639421
 C         -0.7926340482        2.9961313030       -0.8034015676
 C         -0.0234440940        1.8747757007       -0.5766829559
 N          1.7088251516       -0.1606171887        0.4140744044
 C          4.4799417786        0.0394385856       -0.0240957634
 C          5.8359174685        0.0976641737       -0.2670816156
 H         10.4356478681       -4.2833487846       -3.4080775109
 H          7.9795197835       -4.3878604562       -3.0965435119
 H          6.8616740963       -2.8163691281       -1.5914578197
 H         11.7376409672       -2.5419360761       -2.2027304375
 H         12.0759406178        1.0415326353        0.6041191484
 H         11.1179901168        2.6966448980        2.1925274523
 H          8.6977185271        2.6065460093        2.7177697671
 H          7.2683001102        0.9324099569        1.6516844931
 H          6.7477091576       -2.9011977412        1.0147577502
 H          4.3106374264       -2.9999139443        1.4502480925
 H         -1.4549801353       -3.1979862077        2.5595279899
 H         -3.7948348997       -3.9598399192        2.2960288400
 H         -3.7352534288       -5.3180279934        0.0731788280
 H         -4.3294081060       -7.6652822785       -0.2761011034
 H         -6.7090083708       -8.3370982247       -0.4438561294
 H         -8.4744079806       -6.5931451806       -0.2987829120
 H         -9.8646250432       -2.2635395666        0.1367503328
 H         -9.4488386874        0.1552169570        0.5342982512
 H         -7.1273431738        0.9389725684        0.8985571350
 H         -5.2671857058       -0.6514175946        0.8228087281
 H         -4.1172123984       -1.6854744605       -1.3068050960
 H         -1.7933496913       -0.9262832992       -1.0430270489
 H         -1.8762954226        0.4293513641        1.8628592309
 H         -3.2389945188        2.4358272593        1.4669224256
 H         -4.0634073020        2.0776164510       -0.9282461169
 H         -6.3621792731        1.9103245669       -1.7456801262
 H         -7.7040750723        3.9601750653       -2.1163264496
 H         -6.6711401330        6.1800431485       -1.6829669059
 H         -3.1906850977        8.8513475349       -0.4340115107
 H         -0.8974980577        9.2131815050        0.4561053508
 H          0.4951088284        7.2485259984        1.0411834869
 H         -0.3656373049        4.9853413584        0.7016394643
 H         -0.4944372977        3.7205678886       -1.5465994843
 H          0.8816422626        1.7076313937       -1.1398515706
 H          3.8352148925        0.8561738148       -0.3086687219
 H          6.2683055150        0.9614107618       -0.7502020512
