  55
 
 C          6.9180287928       -1.4393297461        1.6402638472
 C          6.0591911064       -2.5211322069        1.5021751938
 C          4.7516617467       -2.2955491339        1.1205208396
 C          4.3451534216       -0.9803323116        0.8756456105
 C          2.9657710797       -0.7084043385        0.4858251602
 N          1.9969866918       -1.4516709332        1.0084824510
 C          0.7084913930       -1.1757332513        0.7936066463
 C         -0.3215130734       -1.9454417483        1.3294529436
 C         -1.6485207257       -1.6034140172        1.1240857979
 C         -1.9710983510       -0.4851886064        0.3684633860
 N         -3.3299147596       -0.1389874131        0.1617090129
 C         -4.1584074179       -0.9583726826       -0.5954959417
 C         -3.6903740225       -2.1078269544       -1.2242554186
 C         -4.5445594929       -2.9029392774       -1.9696291988
 C         -5.8771753461       -2.5624012786       -2.1074144789
 C         -6.3553100483       -1.4076437745       -1.5076189954
 C         -5.5073354966       -0.6075570323       -0.7632751632
 O         -6.0400092799        0.5314560333       -0.2185971828
 C         -5.2049727275        1.3367148253        0.5110223238
 C         -5.7515770808        2.4858080148        1.0531621242
 C         -4.9698150701        3.3348591907        1.8212208766
 C         -3.6438959975        3.0205929364        2.0530758052
 C         -3.0894134055        1.8725155370        1.5125120909
 C         -3.8532654742        1.0206575536        0.7209484164
 C         -0.9657315654        0.3009176425       -0.1958280704
 C          0.3711622478       -0.0185316073       -0.0020781825
 N          1.3645780518        0.6856516529       -0.5596710832
 C          2.6355063928        0.3534595224       -0.3785883819
 C          3.6615695978        1.0808067000       -1.1225702638
 C          3.5178531429        2.4520358673       -1.3497467771
 C          4.4964106653        3.1055609748       -2.0727982168
 C          5.5758774757        2.3795029715       -2.5561453518
 C          5.6095423848        1.0158989733       -2.3010273255
 N          4.6832454911        0.3848747928       -1.6111756547
 N          5.1647353081        0.0542854692        1.0372562219
 C          6.4088806749       -0.1706754125        1.4024158070
 H          7.9478255483       -1.5744638767        1.9317772355
 H          6.4081885823       -3.5265921169        1.6907760802
 H          4.0432548033       -3.0999868953        1.0031609213
 H         -0.0615290201       -2.8035347797        1.9280319989
 H         -2.4363021959       -2.2025291569        1.5552175030
 H         -2.6494904284       -2.3739078065       -1.1306929333
 H         -4.1579683686       -3.7912477672       -2.4447139921
 H         -6.5451808925       -3.1823281739       -2.6840472418
 H         -7.3856265272       -1.1061807795       -1.6082730104
 H         -6.7925563292        2.6948227192        0.8654381570
 H         -5.4030038717        4.2296530983        2.2393016743
 H         -3.0297665301        3.6668321634        2.6608959939
 H         -2.0571843538        1.6292083494        1.7072120720
 H         -1.2177264955        1.1525428297       -0.8077176245
 H          2.6566172813        2.9686252443       -0.9572106423
 H          4.4211969144        4.1675634463       -2.2593966125
 H          6.3632089729        2.8542536609       -3.1205216492
 H          6.4155907504        0.3955877802       -2.6723281416
 H          7.0260075146        0.7117392113        1.5163538568
