  111
 
 C         -8.1739431971       -4.0791375993        1.8277054423
 C         -6.9724493795       -3.7560069240        2.7201547636
 C         -7.4747210737       -3.6245156902        4.1649119666
 C         -5.9769162908       -4.9203418926        2.6188519452
 C         -6.2749395755       -2.4655634137        2.3158622463
 C         -5.1593842030       -2.0411395546        3.0486994654
 C         -4.4683286143       -0.8808422128        2.7608426324
 C         -4.9135756629       -0.1040788740        1.7035855527
 C         -6.0130113737       -0.5249655715        0.9296519187
 C         -6.6900282556       -1.6961851941        1.2408553230
 C         -6.1779424837        0.4503150551       -0.1151307566
 C         -7.0943016559        0.5859858120       -1.1451507449
 C         -7.0213233913        1.6771025074       -2.0016510005
 C         -8.0359034706        1.8009017255       -3.1295805661
 C         -9.4459835324        1.8784103848       -2.5271375290
 C         -7.9258069925        0.5683334318       -4.0384749457
 C         -7.8189860592        3.0467704253       -3.9925895085
 C         -6.0227842497        2.6292812330       -1.7827624696
 C         -5.0951030757        2.5183647694       -0.7618816215
 C         -5.1607169192        1.4106578169        0.0645279954
 N         -4.3980626201        1.0696145953        1.1727315407
 C         -3.3202973146        1.7871515054        1.6711269577
 C         -3.1893823682        2.0430944225        3.0395304482
 C         -2.0952631341        2.7649169622        3.4810397974
 C         -1.1861660226        3.2035618451        2.5361585631
 S          0.2702924403        4.1460924727        3.0357212360
 O          0.4253150015        4.0108254168        4.4606507868
 O          0.1967802133        5.4832042059        2.5083072492
 C          1.6097435968        3.2780687037        2.1924220994
 C          2.5949485237        3.9793808739        1.5222971612
 C          3.5930419900        3.2541349910        0.8970411871
 C          3.5603321891        1.8581116155        0.9721164486
 N          4.5375357817        1.0815174759        0.3670624130
 C          5.9059076388        1.3079923334        0.4161632584
 C          6.6312742778        2.2745950386        1.0935093674
 C          8.0080824864        2.2400945352        0.9945288333
 C          8.6949072419        1.2706031549        0.2529787653
 C         10.2142787765        1.3281790352        0.1967480988
 C         10.7774772393        1.1984131884        1.6189705523
 C         10.8136859834        0.2066092724       -0.6560586724
 C         10.6429630945        2.6704269737       -0.4129217267
 C          7.9591147128        0.2891550993       -0.3912872305
 C          6.5735184627        0.3009744862       -0.3083166034
 C          5.5569806855       -0.5734438680       -0.8296181828
 C          5.6027017277       -1.7056015189       -1.6264683221
 C          4.4252055211       -2.3385336450       -2.0037476489
 C          4.5021980231       -3.5877270489       -2.8700637108
 C          3.1256464685       -4.1742046794       -3.1944152092
 C          5.1944485525       -3.2367918872       -4.1947588691
 C          5.3126199338       -4.6601232836       -2.1280371435
 C          3.2112714280       -1.7920815472       -1.5805691975
 C          3.1371289687       -0.6624446619       -0.7844605819
 C          4.3189980262       -0.0627492313       -0.3869756108
 C          2.5034496869        1.2664917658        1.6763721967
 N          1.5540310940        1.9631293777        2.2670205626
 N         -1.2879349625        2.9701320389        1.2428040078
 C         -2.3254764339        2.2794987700        0.8161983797
 H         -8.6379317696       -5.0034812216        2.1658964390
 H         -7.8675880989       -4.2174049170        0.7933855360
 H         -8.9215216914       -3.2908237725        1.8775942449
 H         -6.6546069044       -3.4577172951        4.8575109049
 H         -8.1661094337       -2.7884112319        4.2474835869
 H         -7.9936191673       -4.5324331357        4.4651105755
 H         -5.1314956307       -4.7800705899        3.2864703027
 H         -5.5980487270       -5.0031986801        1.6022271265
 H         -6.4665554724       -5.8555004945        2.8823384071
 H         -4.8099380589       -2.6402599122        3.8754247994
 H         -3.5985044587       -0.6067752312        3.3385984243
 H         -7.5272366883       -1.9857820386        0.6283401246
 H         -7.8624940249       -0.1626001827       -1.2614956702
 H         -9.6833773227        0.9851274085       -1.9562513439
 H        -10.1861792368        1.9841395964       -3.3174686845
 H         -9.5240605405        2.7372289904       -1.8637010618
 H         -8.1350096673       -0.3475559349       -3.4930173713
 H         -6.9225186750        0.4961170747       -4.4532803792
 H         -8.6345504533        0.6441428756       -4.8604381180
 H         -7.9246601890        3.9552331702       -3.4042577983
 H         -6.8366714147        3.0344960494       -4.4591172349
 H         -8.5656100553        3.0722205564       -4.7838908899
 H         -5.9569296081        3.4957667518       -2.4191969592
 H         -4.3546756267        3.2901311938       -0.6156068669
 H         -3.9444881619        1.6973190818        3.7294837426
 H         -1.9296472365        2.9973298940        4.5200405178
 H          2.5498058765        5.0555545914        1.4925135307
 H          4.3739647210        3.7479496607        0.3384615966
 H          6.1476512969        3.0268003127        1.6981925135
 H          8.5671710308        2.9979009484        1.5213754146
 H         10.4398339569        2.0107412694        2.2562927687
 H         11.8650255298        1.2157220851        1.5938763009
 H         10.4570876128        0.2594219703        2.0656373749
 H         11.8976252623        0.3013090724       -0.6686411491
 H         10.5678931902       -0.7705453611       -0.2467675613
 H         10.4600108959        0.2642546124       -1.6829217663
 H         10.2285885454        2.7779218763       -1.4132769236
 H         11.7275730858        2.7214335699       -0.4812078620
 H         10.3012173188        3.5077597831        0.1888824268
 H          8.4349973766       -0.4951098795       -0.9555947192
 H          6.5626134490       -2.0773965490       -1.9493641553
 H          2.5968707280       -4.4584290675       -2.2875670123
 H          3.2483680406       -5.0668590315       -3.8046052874
 H          2.5195558237       -3.4666105846       -3.7553713595
 H          4.6376743005       -2.4602582570       -4.7151870263
 H          6.2064968097       -2.8776618697       -4.0307731568
 H          5.2444762336       -4.1144978988       -4.8357266123
 H          5.3686783669       -5.5679115288       -2.7251014378
 H          6.3254329547       -4.3234223494       -1.9257934381
 H          4.8376385289       -4.8998835927       -1.1789506243
 H          2.2825367423       -2.2497277003       -1.8778191632
 H          2.1758929591       -0.2615808539       -0.5002403601
 H          2.4377979448        0.1923466622        1.7796471237
 H         -2.3635947201        2.0879210855       -0.2472420990
