  59
 
 C          1.4367784357        3.8922221254       -0.8672071121
 C          0.4046090484        2.9746952623       -0.9288502917
 C          0.6357159954        1.6376859518       -0.6491891927
 C          1.9013669454        1.2029896107       -0.2839324087
 C          2.9485284613        2.1320799324       -0.2579503083
 C          2.7149060891        3.4665639506       -0.5454237917
 O          4.2421054450        1.7656185475        0.0430019742
 C          4.5345547674        0.4391456310       -0.1493355238
 C          5.8570883952        0.0786088932       -0.3548982063
 C          6.1820065227       -1.2463115024       -0.5923131794
 C          5.1822395375       -2.2008670845       -0.6645731956
 C          3.8605903820       -1.8435785245       -0.4592990472
 C          3.5261664623       -0.5285613782       -0.1566203628
 N          2.1969877114       -0.1293705011        0.0833304311
 C          1.3190578104       -0.9431558757        0.7694976501
 C          1.8247178810       -1.8926913467        1.7060756021
 C          0.9482415938       -2.6586164490        2.4100934542
 C         -0.4460502549       -2.5119910070        2.2063059944
 C         -1.4189251694       -3.2566546883        2.8940993344
 C         -2.7514052180       -3.0356142607        2.6619101226
 C         -3.1588171331       -2.0726431014        1.7302993149
 C         -2.2333855491       -1.3283330631        1.0396900858
 N         -2.6433712738       -0.3561872890        0.0935434552
 C         -2.3438040928       -0.5484291808       -1.2538783536
 C         -1.8977237828       -1.7705961786       -1.7398285607
 C         -1.6216542236       -1.9399424763       -3.0882074068
 C         -1.7968762236       -0.8948618721       -3.9726819764
 C         -2.2632634843        0.3267446992       -3.5063339103
 C         -2.5414933715        0.4984297956       -2.1639158130
 O         -3.0227385089        1.7288326262       -1.7749500175
 C         -3.2310478503        1.9265284783       -0.4279382328
 C         -3.6402709242        3.1866915008       -0.0354284617
 C         -3.8564782507        3.4665685041        1.3069998758
 C         -3.6484624085        2.4800841678        2.2491943749
 C         -3.2378771222        1.2136546229        1.8596368186
 C         -3.0328915667        0.9128657317        0.5193874433
 C         -0.8472663471       -1.5281630835        1.2669710080
 N          0.0310751262       -0.7763973697        0.5796379901
 H          1.2576663843        4.9348394034       -1.0786002366
 H         -0.5912265632        3.2919351962       -1.1965906268
 H         -0.1621008010        0.9191364224       -0.6879711126
 H          3.5452317809        4.1538493604       -0.5021638048
 H          6.6120348345        0.8480240261       -0.3212921418
 H          7.2135644819       -1.5249472359       -0.7394703754
 H          5.4260463707       -3.2289384671       -0.8828362774
 H          3.0780561693       -2.5844568444       -0.5251164652
 H          2.8870137238       -1.9657638522        1.8775806012
 H          1.3018351840       -3.3712685430        3.1419679814
 H         -1.0979170146       -4.0009662880        3.6083427878
 H         -3.4998333788       -3.6054197981        3.1913156256
 H         -4.2108416305       -1.9077880228        1.5490020941
 H         -1.7650416793       -2.5938630667       -1.0548649738
 H         -1.2721767676       -2.8990688637       -3.4395401378
 H         -1.5814642224       -1.0199949891       -5.0222612337
 H         -2.4199961281        1.1599880866       -4.1733559306
 H         -3.7832655165        3.9389999931       -0.7956420324
 H         -4.1778234002        4.4527947982        1.6030999693
 H         -3.8030286026        2.6851893078        3.2976239614
 H         -3.0696670792        0.4506775778        2.6038527512
