  46
 
 O         -1.6036907730       -0.3619188055       -2.0444282053
 C         -0.3244526250       -0.0774548476       -1.7491531262
 C          0.2689791428        1.1835034957       -1.6040769761
 C         -0.2830343127        2.4514059301       -1.8871608789
 C          0.4671119905        3.5779715155       -1.6555422940
 C          1.7687898717        3.5016953249       -1.1520124385
 C          2.3405800709        2.2622264286       -0.8876416887
 C          1.5979978524        1.1347011342       -1.1219580269
 S          2.0362956500       -0.5542686761       -0.8649086766
 O          3.0497901549       -1.0515559854       -1.7478132271
 O          2.1669331424       -0.9171634024        0.5173157059
 N          0.5264760210       -1.1100151290       -1.4275279706
 C          0.2586043166       -2.5069520714       -1.6213084402
 C          0.0107311403       -3.2252568719       -0.2925062490
 C         -1.2958465228       -2.7828654708        0.3798300760
 N         -1.2312091721       -1.4466164356        0.9055871066
 C         -0.5310174422       -1.0947974966        2.0401351541
 C          0.2113368748       -1.8827860298        2.9072453223
 C          0.8210876202       -1.2586963025        3.9767971685
 C          0.6947473089        0.1127864264        4.1884268458
 C         -0.0561744552        0.8988390063        3.3385652117
 C         -0.6787417712        0.2935268422        2.2557005159
 C         -1.5186861133        0.7810627432        1.1972092888
 C         -2.0698333071        2.0385442906        0.9334984066
 C         -2.9605606185        2.1529530550       -0.1447349927
 C         -3.2392507012        1.1117156269       -0.9765695248
 C         -2.5565180039       -0.2087438174       -0.8814272742
 C         -1.8162412549       -0.3241346768        0.3940558411
 H         -1.2812448982        2.5136542772       -2.2888884198
 H          0.0449485542        4.5486182601       -1.8700783205
 H          2.3325189116        4.4036456037       -0.9758331069
 H          3.3463490666        2.1774064525       -0.5069777825
 H          1.1412473502       -2.9354929004       -2.1079680467
 H         -0.6054371018       -2.6018284720       -2.2865396879
 H          0.8501093317       -3.0132490047        0.3710341170
 H         -0.0350438972       -4.2995399300       -0.4776330575
 H         -1.5182679338       -3.4633567830        1.2097041455
 H         -2.1172049905       -2.8368118064       -0.3396308490
 H          0.3227372108       -2.9453229053        2.7564345330
 H          1.4146107706       -1.8449889049        4.6621850260
 H          1.1956938618        0.5633092686        5.0323848169
 H         -0.1555723915        1.9609437335        3.5041772413
 H         -1.8421302597        2.8848046557        1.5589760101
 H         -3.4527841586        3.1004508526       -0.3111615441
 H         -3.9217379106        1.2304786866       -1.8030709649
 H         -3.2594824646       -1.0324249207       -1.0645538538
