  69
 
 C          6.7901086602        0.6818473363        1.2271735400
 C          6.2130808580        1.7563550205        0.5614409133
 C          4.9131571873        1.6831192179        0.1148481939
 C          4.1552907145        0.5208645268        0.3256734214
 C          2.8040349716        0.4393351802       -0.1357048842
 N          2.2159498688        1.4717127741       -0.7122861138
 C          0.9634726482        1.4087500763       -1.1101854087
 C          0.3154585816        2.5407202746       -1.7040645052
 C          0.9930408725        3.7604638884       -1.8487211694
 C          0.3501636872        4.8517034414       -2.3887764950
 C         -0.9753971449        4.7588105789       -2.7946993816
 C         -1.6533716586        3.5543781359       -2.6607833922
 C         -1.0207435904        2.4543985082       -2.1248078645
 N          0.2244911613        0.2526743543       -0.9399735847
 C          0.8511120101       -0.7350964767       -0.3389055158
 N          0.1102929993       -1.9006337076       -0.1754419500
 C          0.5923913323       -3.1543732139       -0.5306163129
 C          1.9017387340       -3.5765495747       -0.6823387379
 C          2.1108013700       -4.8971109201       -1.0402942751
 C          1.0456356126       -5.7661606336       -1.2564666270
 C         -0.2637371536       -5.3397110095       -1.1233775129
 C         -0.4962803768       -4.0220480471       -0.7578180990
 C         -1.6937825952       -3.2527179954       -0.5363532115
 C         -3.0386415458       -3.5793089044       -0.6726576074
 C         -3.9964962927       -2.6158718280       -0.4165386359
 C         -3.6016902983       -1.3690487853        0.0541294847
 C         -4.3640564621       -0.2317605517        0.4894511645
 C         -5.7239758721        0.0408859030        0.5243819699
 C         -6.1424926234        1.2434611141        1.0621445963
 C         -5.2245189938        2.1521226158        1.5814768329
 C         -3.8651279599        1.8989631654        1.5604581020
 C         -3.4358399200        0.7108892275        0.9859488121
 N         -2.1550681388        0.2065038547        0.8473435622
 C         -1.0105103214        0.7768002424        1.4241203449
 C         -0.7128599881        2.1242623719        1.2343001430
 C          0.4317229768        2.6588494855        1.7945352711
 C          1.2791239645        1.8675104023        2.5533979184
 C          0.9643158983        0.5354278138        2.7729178840
 C         -0.1769296116       -0.0099801438        2.2190370257
 C         -2.2360467895       -1.0357465302        0.2632372794
 C         -1.2702638769       -1.9589853373       -0.1435870404
 N          2.0963040435       -0.7283876161        0.0658138659
 C          4.7464210121       -0.5567145854        1.0024917201
 C          6.0480500457       -0.4711995338        1.4448708517
 H          7.8109257217        0.7437300855        1.5740698818
 H          6.7900452512        2.6546197480        0.3929325665
 H          4.4538745190        2.5100727986       -0.4047636829
 H          2.0207407014        3.8219626855       -1.5252429019
 H          0.8790084153        5.7881523443       -2.4962934129
 H         -1.4756289292        5.6191104326       -3.2140912799
 H         -2.6841380147        3.4793837493       -2.9778062889
 H         -1.5369671501        1.5122146855       -2.0177649496
 H          2.7213401231       -2.8933992846       -0.5252962461
 H          3.1212280233       -5.2582114811       -1.1585658679
 H          1.2473692353       -6.7889305728       -1.5376795328
 H         -1.0873859560       -6.0150933066       -1.2973288887
 H         -3.3224304245       -4.5704836858       -0.9894302282
 H         -5.0450041029       -2.8319014497       -0.5492579120
 H         -6.4362222981       -0.6738270289        0.1415289324
 H         -7.1955111168        1.4792192015        1.0933543736
 H         -5.5811967856        3.0742079558        2.0151943537
 H         -3.1685894089        2.6016332490        1.9894868008
 H         -1.3436424889        2.7287735079        0.6015493442
 H          0.6735990380        3.6955633363        1.6156730915
 H          2.1843668860        2.2837734437        2.9676460411
 H          1.6171418297       -0.0838471931        3.3691252980
 H         -0.4285236772       -1.0461359128        2.3941876673
 H          4.1586055584       -1.4459693499        1.1730551574
 H          6.4951460818       -1.3067951268        1.9648136552
