  76
 
 C          0.9134795934       -5.5633281839       -1.8994476033
 C          0.1462721128       -5.7760993902       -0.7654881827
 C         -0.5288123338       -4.7281055179       -0.1697626228
 C         -0.4519610656       -3.4438083567       -0.7089830004
 N         -1.1305782174       -2.3789748698       -0.1048632198
 C         -2.4066689461       -2.5816653858        0.4321200214
 C         -2.7886933577       -1.9509232927        1.6164112346
 C         -4.0534663678       -2.1488850249        2.1352153927
 C         -4.9545890095       -2.9819626712        1.4919657929
 C         -4.5783039145       -3.6177719251        0.3197964194
 C         -3.3186263649       -3.4187813828       -0.2114307549
 C         -0.5324611647       -1.1141469495       -0.0438748853
 C          0.8422500432       -1.0102424531        0.1374827298
 C          1.4452165121        0.2436254628        0.1853003203
 C          0.6723300572        1.4186306412        0.0637936225
 C         -0.7222828734        1.2869094699       -0.1103308619
 C         -1.3149654707        0.0284415403       -0.1681917998
 N         -1.5003419021        2.4205433426       -0.2264199732
 C         -2.9172022480        2.2395405367       -0.2555879431
 C         -3.5787299121        2.0564623737       -1.4640676792
 C         -4.9484548234        1.8603043970       -1.4757775997
 C         -5.6595738345        1.8457764758       -0.2866891271
 C         -5.0001096024        2.0312579072        0.9168945760
 C         -3.6299346372        2.2272407956        0.9358127908
 C         -0.9928872414        3.6996226269       -0.3689044404
 C         -1.8830873525        4.7535327880       -0.6229200698
 C         -1.4196982435        6.0281143990       -0.8539914625
 C         -0.0535425986        6.2818475478       -0.8561102019
 C          0.8215187622        5.2582226997       -0.5675843153
 C          0.3949508879        3.9565710043       -0.2754820184
 B          1.3229766704        2.7847931959        0.1160666689
 C          2.8053587636        2.7772048379        0.5515153201
 C          3.5373678344        3.9086016892        0.9331646052
 C          4.8745807664        3.8558379710        1.2583539055
 C          5.5388378503        2.6365556887        1.2049258092
 C          4.8487952854        1.4898550325        0.8862210260
 C          3.4781255142        1.5336214939        0.5913128933
 N          2.8108980047        0.3451288819        0.3544599405
 C          3.5616143906       -0.8703670439        0.3401765659
 C          3.7938444720       -1.5664050334        1.5204713629
 C          4.5004801769       -2.7557807304        1.4903034758
 C          4.9749839173       -3.2527779637        0.2870677078
 C          4.7460339773       -2.5569256637       -0.8881912074
 C          4.0400205222       -1.3664693597       -0.8650821445
 C          0.3141371660       -3.2378433947       -1.8565792849
 C          0.9924461101       -4.2900325578       -2.4402146110
 H          1.4437625211       -6.3837341769       -2.3593946170
 H          0.0798220197       -6.7647179297       -0.3345265498
 H         -1.1185122448       -4.8951059775        0.7201316646
 H         -2.0850411296       -1.3083594083        2.1249052726
 H         -4.3349546209       -1.6539814143        3.0534952895
 H         -5.9415214077       -3.1362520063        1.9017198932
 H         -5.2744266928       -4.2671621942       -0.1913352497
 H         -3.0310749647       -3.9087065005       -1.1306083966
 H          1.4237642856       -1.9116963891        0.2459680755
 H         -2.3769608246       -0.0798324521       -0.3203678754
 H         -3.0137715201        2.0677589809       -2.3848581548
 H         -5.4607780954        1.7167897476       -2.4156484668
 H         -6.7280524374        1.6904405976       -0.2988230858
 H         -5.5524537354        2.0207858886        1.8447264939
 H         -3.1045462512        2.3697019085        1.8688041300
 H         -2.9461379224        4.5662496435       -0.6531504157
 H         -2.1224041357        6.8253571492       -1.0520354267
 H          0.3147437490        7.2735933938       -1.0770050768
 H          1.8814525285        5.4597674437       -0.5874756269
 H          3.0243228167        4.8559145580        0.9951711472
 H          5.4054145760        4.7517199465        1.5475027650
 H          6.5942599609        2.5802343979        1.4317995412
 H          5.3721195764        0.5453253450        0.8781353360
 H          3.4160661395       -1.1705777372        2.4520332579
 H          4.6786913834       -3.2962266873        2.4082406764
 H          5.5241292616       -4.1822129936        0.2661000695
 H          5.1160213333       -2.9420546739       -1.8267136997
 H          3.8526703929       -0.8170685716       -1.7760062531
 H          0.3703697944       -2.2476869779       -2.2847032986
 H          1.5814727354       -4.1152065591       -3.3289415909
