  84
 
 C          8.1852551373       -0.3999490383       -1.3375219751
 C          7.3821909632       -0.1121187547       -0.0557519341
 C          8.3358032371        0.1604187578        1.1219494171
 C          6.5286859620        1.1192190551       -0.2896229967
 C          7.1446935923        2.3215414006       -0.6109719543
 C          6.4225499390        3.4703664889       -0.8727704734
 C          5.0409609321        3.4209605754       -0.8364694150
 C          4.4036890247        2.2402779481       -0.5187205148
 C          5.1325245966        1.0855022019       -0.2181035663
 N          4.4645360653       -0.0879065669        0.1120656754
 C          3.0528932731       -0.0753606535        0.1927993864
 C          2.4166148180        0.6219542852        1.2156128110
 C          1.0394648229        0.6459657882        1.2865901555
 C          0.2740346037       -0.0426935105        0.3478138540
 C         -1.1902747467       -0.0212542871        0.4301175240
 C         -1.9377789509       -1.2054619207        0.3850585412
 C         -1.3090840818       -2.4664212914        0.3112703842
 N         -0.8142907688       -3.5002761299        0.2651103076
 C         -3.3429107662       -1.1223765873        0.4100833995
 C         -4.1649598724       -2.3438532937        0.3326531891
 C         -4.0727752081       -3.2764696381        1.3371368720
 C         -4.8866317698       -4.4161912936        1.3316467820
 C         -5.7885754222       -4.6139326257        0.3245725731
 C         -5.8957957435       -3.6924509808       -0.7376136483
 C         -6.8026018075       -3.8882190882       -1.8004566451
 C         -6.8702580706       -3.0009097508       -2.8372210616
 C         -6.0170802984       -1.8878105290       -2.8681813857
 C         -5.1294402303       -1.6687270481       -1.8522523367
 C         -5.0622325925       -2.5434237523       -0.7483559363
 N         -3.9751556587        0.0294241631        0.5461694182
 C         -3.2997299470        1.1642112445        0.6568686078
 C         -4.0399242748        2.4024471280        0.9255382714
 C         -3.5291152789        3.2686388303        1.8696035854
 C         -4.1715459298        4.4710425172        2.1784998401
 C         -5.3272891966        4.8146696500        1.5356330498
 C         -5.8966709327        3.9554810326        0.5738743589
 C         -7.0945965094        4.2986395949       -0.0880752334
 C         -7.6500238710        3.4624246602       -1.0143720641
 C         -7.0264915636        2.2438176320       -1.3171808404
 C         -5.8611059598        1.8856854499       -0.6979643969
 C         -5.2616842463        2.7214454650        0.2653671475
 C         -1.8903554981        1.1864337636        0.5553955101
 C         -1.1867600107        2.4078351848        0.4645681674
 N         -0.6069551269        3.3887229432        0.3298135375
 C          0.9133809390       -0.7507341579       -0.6674569357
 C          2.2903807101       -0.7586125732       -0.7499455364
 C          5.1464356207       -1.2719962656        0.3654901878
 C          4.4377528380       -2.4146722725        0.7490416473
 C          5.0875065643       -3.6056875948        0.9947353670
 C          6.4632732658       -3.6778310607        0.8739903193
 C          7.1696459863       -2.5411729906        0.5291311001
 C          6.5409622982       -1.3288373479        0.2777501500
 H          8.8184688549       -1.2737136266       -1.2111055301
 H          7.5043588810       -0.5862067102       -2.1660637686
 H          8.8181175595        0.4439817575       -1.5975627870
 H          7.7608656206        0.3583998393        2.0247453504
 H          8.9653353611        1.0226545937        0.9204514381
 H          8.9798331651       -0.6947767104        1.3068387918
 H          8.2220116311        2.3675226869       -0.6626725425
 H          6.9339667055        4.3895213078       -1.1146220621
 H          4.4533470791        4.2989229754       -1.0585273453
 H          3.3251480192        2.2135927835       -0.5105848414
 H          3.0099407153        1.1466385370        1.9491097968
 H          0.5542812900        1.1789396137        2.0911016880
 H         -3.3840410668       -3.1218382604        2.1554224048
 H         -4.7972984716       -5.1290073234        2.1373826347
 H         -6.4289621466       -5.4841026763        0.3224355531
 H         -7.4392594829       -4.7611651725       -1.7809903237
 H         -7.5685797262       -3.1572087033       -3.6461721814
 H         -6.0604043295       -1.2081326602       -3.7066885951
 H         -4.4554551080       -0.8257640544       -1.8974701397
 H         -2.6291964356        3.0105574014        2.4091907320
 H         -3.7418104139        5.1204881697        2.9259303067
 H         -5.8266963426        5.7461079036        1.7600739261
 H         -7.5639993331        5.2412585192        0.1548643328
 H         -8.5677982050        3.7323013084       -1.5157420933
 H         -7.4737102566        1.5833495079       -2.0455537580
 H         -5.4034131777        0.9385731258       -0.9262223405
 H          0.3291186029       -1.2721470487       -1.4112824965
 H          2.7855616712       -1.2961858852       -1.5443723037
 H          3.3657141642       -2.3697857036        0.8623546152
 H          4.5148208675       -4.4740903208        1.2835367363
 H          6.9837053890       -4.6052939461        1.0579013979
 H          8.2448880625       -2.6051639853        0.4573471167
