  90
 
 C          8.4267822451        2.9899331614       -0.3539787682
 C          8.2415144732        1.6148558584        0.3152384729
 C          9.5137089811        1.2246507580        1.0912384475
 C          7.9920150799        0.5806640964       -0.7667364385
 C          8.9516675502        0.3758242472       -1.7490315427
 C          8.7718124857       -0.5328330720       -2.7758663702
 C          7.5927277880       -1.2534253570       -2.8404871408
 C          6.6230078789       -1.0707825009       -1.8768871503
 C          6.8132700641       -0.1710315811       -0.8233374012
 N          5.8232734626       -0.0176363941        0.1362973275
 C          4.6523308419       -0.8165314971        0.0529218264
 C          4.6931005700       -2.1553482143        0.4295776715
 C          3.5579358817       -2.9371276983        0.3447947234
 C          2.3580582074       -2.3941732793       -0.1153123011
 C          1.1331318425       -3.1934647035       -0.2176188100
 C          1.1499305386       -4.5865149617       -0.3661527876
 C         -0.0497789575       -5.2632602702       -0.4114521780
 C         -1.2479855681       -4.5442106033       -0.3439141850
 C         -2.4671142797       -5.2474209250       -0.2985355312
 N         -3.4301432991       -5.8706577147       -0.2313289912
 C         -1.1739077611       -3.1371220291       -0.2618232812
 C         -2.3671383501       -2.2821662667       -0.2409245924
 C         -2.3677445719       -1.1392851152        0.5587591605
 C         -3.4743576801       -0.3164825124        0.6036076426
 C         -4.5951073313       -0.6136454017       -0.1664605284
 N         -5.7363039441        0.2294054081       -0.1226216939
 C         -6.8631727440       -0.1980411796        0.5655949957
 C         -6.8391916481       -1.4216624768        1.2422257484
 C         -7.9458414920       -1.8771377349        1.9279861686
 C         -9.0984788050       -1.1129483928        1.9603818025
 C         -9.1162477357        0.1088014655        1.3129459457
 C         -8.0170761991        0.5916653031        0.6151721114
 C         -8.0957772794        1.9535344537       -0.0495610614
 C         -8.3766168933        3.0123827190        1.0334890674
 C         -9.2359101816        1.9357950684       -1.0852690695
 C         -6.8030591564        2.3113217617       -0.7589339244
 C         -6.7047740000        3.5251964959       -1.4261632567
 C         -5.5626424667        3.8987996922       -2.1103413965
 C         -4.4846423532        3.0327586594       -2.1474050855
 C         -4.5549098444        1.8207971025       -1.4927167339
 C         -5.6996827048        1.4513109865       -0.7796778737
 C         -4.5894448628       -1.7376167341       -0.9861260458
 C         -3.4853925060       -2.5668563299       -1.0216177427
 N         -0.0106426714       -2.5150244786       -0.1814320235
 C          2.3224855676       -1.0461148602       -0.4778536947
 C          3.4571324879       -0.2654290455       -0.3999865975
 C          5.9483319647        0.8908726960        1.1778123001
 C          4.9383964159        0.9842684278        2.1405016131
 C          5.0308064673        1.8818498726        3.1836082558
 C          6.1400718444        2.7013932147        3.2905560691
 C          7.1507505104        2.5945287992        2.3528457859
 C          7.0844407163        1.6992822671        1.2934201899
 H          7.5250800718        3.2608184420       -0.9009668109
 H          8.6216790420        3.7591644563        0.3881347389
 H          9.2586211936        2.9726631430       -1.0526796655
 H          9.3777441805        0.2520641814        1.5616262447
 H          9.7334297923        1.9525080734        1.8673563122
 H         10.3713632589        1.1672546444        0.4266906750
 H          9.8702876005        0.9420776596       -1.7189659909
 H          9.5412235185       -0.6686366784       -3.5211926082
 H          7.4228964297       -1.9569407571       -3.6426317587
 H          5.7015330249       -1.6286149724       -1.9420439302
 H          5.6207024830       -2.5750885216        0.7899873210
 H          3.6038131068       -3.9662276823        0.6662240503
 H          2.0800453632       -5.1237391231       -0.4489670809
 H         -0.0790807382       -6.3404958338       -0.4947377694
 H         -1.4935321846       -0.9174604493        1.1510400765
 H         -3.4799663028        0.5621410351        1.2314383770
 H         -5.9419154660       -2.0214771939        1.2314962585
 H         -7.9022188736       -2.8284763668        2.4378959709
 H         -9.9731461650       -1.4591489332        2.4905044660
 H        -10.0176477204        0.7011330041        1.3579493224
 H         -9.3078115986        2.7999638541        1.5512692993
 H         -7.5702312389        3.0170561289        1.7650950432
 H         -8.4490750253        4.0043522911        0.5962910311
 H         -9.0303637633        1.1891099580       -1.8506644578
 H        -10.1838193857        1.6912558671       -0.6140777238
 H         -9.3361582578        2.9035507534       -1.5687703211
 H         -7.5438205905        4.2043601797       -1.4169506858
 H         -5.5200382219        4.8520655578       -2.6156571184
 H         -3.5874142143        3.2958360040       -2.6884038893
 H         -3.7135407489        1.1466698220       -1.5372614154
 H         -5.4553340297       -1.9570436840       -1.5928734980
 H         -3.4864164483       -3.4236275082       -1.6789115420
 H          1.3917356907       -0.6297762799       -0.8298947731
 H          3.4283321974        0.7754991730       -0.6862821145
 H          4.0737789465        0.3423208799        2.0714631337
 H          4.2351561318        1.9373271853        3.9122007177
 H          6.2235947009        3.4109753402        4.1001432099
 H          8.0169156617        3.2306421656        2.4557047776
