  90
 
 C         -6.3851213273       -4.6732551412        0.2010856134
 C         -5.7447821127       -3.7299191844       -0.5854909823
 C         -6.2133995127       -2.4306518916       -0.6380991797
 C         -7.3298133380       -2.0596785522        0.1096330208
 C         -7.8613357881       -0.7043800397        0.0845300693
 N         -9.1364058791       -0.4321657156        0.1222225546
 C         -9.2404657450        0.9279492548        0.0279654806
 C        -10.3639476720        1.7471766703        0.0250680042
 C        -10.1631839001        3.1080084568       -0.0675139553
 C         -8.8814392508        3.6566032260       -0.1461157774
 C         -7.7519637759        2.8625939860       -0.1459351870
 C         -7.9467277611        1.4929376978       -0.0725667479
 N         -7.0758226870        0.4273311530       -0.0304139098
 C         -5.6774596282        0.4985944107        0.0022937172
 C         -4.9680525572       -0.1628597895        1.0033123014
 C         -3.5914897164       -0.1317526660        1.0077755560
 C         -2.8822978798        0.5780695150        0.0320543157
 C         -1.4233433292        0.5820045330        0.0222502731
 C         -0.7117965121        1.8226676734        0.0416127539
 C         -1.3723329844        3.0471612205        0.1605213910
 C         -0.6807439815        4.2559511937        0.1000658186
 C          0.6834989821        4.2554775820       -0.0865920264
 C          1.3738517290        3.0461339524       -0.1500590884
 C          0.7120752253        1.8220212038       -0.0341518986
 C          1.4223040159        0.5805525973       -0.0178904478
 C          2.8812499030        0.5750846069       -0.0282616107
 C          3.5892697643       -0.1331526637       -1.0059876354
 C          4.9658134827       -0.1653243305       -1.0025005613
 C          5.6763820050        0.4934143718       -0.0005182307
 N          7.0747549675        0.4216245626        0.0307846617
 C          7.8600167539       -0.7099061600       -0.0875387010
 C          7.3284664661       -2.0651342416       -0.1151553846
 C          7.9838598036       -3.0241779600       -0.8857174247
 C          7.5109082923       -4.3212209152       -0.9341339428
 C          6.3840977868       -4.6786657562       -0.2112398562
 C          5.7440381154       -3.7369616861        0.5775149122
 C          6.2124919965       -2.4377283122        0.6324227213
 N          9.1350872582       -0.4377394307       -0.1258949204
 C          9.2394029459        0.9221408208       -0.0286774641
 C         10.3629765377        1.7412438915       -0.0250986436
 C         10.1624536283        3.1018863417        0.0707177611
 C          8.8808481117        3.6504392569        0.1518427471
 C          7.7512901930        2.8565484044        0.1510504083
 C          7.9458340542        1.4870386926        0.0744415288
 C          4.9876354531        1.2168923526        0.9695091088
 C          3.6096272038        1.2623260124        0.9478680922
 C          0.7117677596       -0.6613948516        0.0178304570
 C          1.3754199760       -1.8866438073        0.1134441516
 C          0.6822038089       -3.0951431222        0.0702438580
 C         -0.6870764474       -3.0942693746       -0.0741704508
 C         -1.3790447112       -1.8849613564       -0.1146571983
 C         -0.7141303542       -0.6606155021       -0.0162538975
 C         -3.6095154272        1.2682752308       -0.9428481568
 C         -4.9875437462        1.2239343083       -0.9655075983
 C         -7.9855138326       -3.0203295855        0.8779146819
 C         -7.5123964106       -4.3174001918        0.9240365992
 H         -6.0123035809       -5.6860672268        0.2417823472
 H         -4.8781160675       -4.0086687563       -1.1672907380
 H         -5.7223965296       -1.7113934768       -1.2772618327
 H        -11.3508629708        1.3198019761        0.0981383800
 H        -11.0147366776        3.7722847635       -0.0732060238
 H         -8.7719975100        4.7293052566       -0.2070155519
 H         -6.7621830788        3.2918228251       -0.1949747306
 H         -5.5058792161       -0.7022346657        1.7688307553
 H         -3.0467885454       -0.6358731627        1.7922262836
 H         -2.4411364964        3.0625045758        0.3088521640
 H         -1.2236472452        5.1850583022        0.1872159564
 H          1.2273573837        5.1842391055       -0.1714436271
 H          2.4426624758        3.0607719640       -0.2983989649
 H          3.0436749231       -0.6350683146       -1.7912313448
 H          5.5027289413       -0.7033603540       -1.7695997036
 H          8.8618311668       -2.7296517250       -1.4390675829
 H          8.0211913894       -5.0571715754       -1.5377758533
 H          6.0114224273       -5.6914593842       -0.2536964030
 H          4.8777325593       -4.0169873476        1.1592375448
 H          5.7217281017       -1.7198012653        1.2732630670
 H         11.3497704149        1.3139295484       -0.1001339639
 H         11.0140827938        3.7660587353        0.0770182793
 H          8.7715785384        4.7230142338        0.2152317006
 H          6.7616061656        3.2857728396        0.2020425654
 H          5.5386239410        1.7166303333        1.7525838279
 H          3.0795060415        1.7978375418        1.7217726815
 H          2.4485806463       -1.9051678828        0.2267535435
 H          1.2281623206       -4.0241879592        0.1370271038
 H         -1.2339977236       -4.0225955979       -0.1430423894
 H         -2.4522202609       -1.9021344410       -0.2280334260
 H         -3.0784792858        1.8052219887       -1.7151294623
 H         -5.5376354328        1.7259196713       -1.7477745550
 H         -8.8638294737       -2.7270270311        1.4313700481
 H         -8.0229142635       -5.0546118149        1.5259378196
