  92
 
 C          0.1250206435       -3.0639468437        1.0011359088
 C          0.0925714013       -1.9390231772       -0.0495062989
 C          0.0695861048       -2.5352792946       -1.4686214087
 C          1.3422819353       -1.0927994936        0.0955176009
 C          2.5822446314       -1.6880181868       -0.0713485730
 C          3.7645782632       -0.9639389872        0.0099642618
 N          4.9971716859       -1.6060040839       -0.1808671750
 C          5.3269174578       -2.4135072684       -1.2494061831
 C          4.5809337602       -2.7405957713       -2.3731500505
 C          5.1637416049       -3.5639888921       -3.3167992639
 C          6.4605729403       -4.0486123171       -3.1582738753
 C          7.2160953780       -3.7075160254       -2.0545465370
 C          6.6524273543       -2.8807964813       -1.0914460283
 C          7.1371948538       -2.3211337251        0.1386449169
 C          8.3392159368       -2.4198344758        0.8270641788
 C          8.4718924138       -1.7494586588        2.0264180397
 C          7.4205688441       -0.9981855131        2.5479782914
 C          6.2156295051       -0.8841764095        1.8822186803
 C          6.0834620377       -1.5385763512        0.6656770383
 C          3.7040536068        0.3999045242        0.2677828943
 C          2.4810972198        1.0057882039        0.4521610072
 C          1.2902063153        0.2765808880        0.3786527149
 N          0.0767008574        0.9191959351        0.5657005603
 C          0.0742085109        2.3056778011        0.8666140397
 C          0.4135921577        2.7423724750        2.1503678996
 C          0.4203310836        4.0868188689        2.4367809335
 C          0.0865097499        5.0256680911        1.4569984878
 S          0.1373182480        6.7002371051        1.9511282517
 C         -0.2781431080        7.5731684346        0.4917689191
 C         -0.2764408065        8.9647785040        0.5936517507
 C         -0.5900324534        9.7444023301       -0.4972491857
 C         -0.9127433794        9.1447705958       -1.7107435226
 C         -0.9169534990        7.7736100215       -1.8114254591
 C         -0.6009690331        6.9561543569       -0.7180067222
 C         -0.6378950205        5.5001784698       -0.9404354331
 O         -0.9668041143        5.0391125224       -2.0217846425
 C         -0.2627819655        4.6045182404        0.1724142346
 C         -0.2581077456        3.2324617670       -0.0998821026
 C         -1.1307789200        0.2458765685        0.4612962939
 C         -2.3299210250        0.9291202679        0.6842562063
 C         -3.5455882249        0.2869608891        0.6022992153
 C         -3.5897715452       -1.0650299188        0.2851097847
 N         -4.8128258991       -1.7465266360        0.1991498755
 C         -5.9060495048       -1.3596409864       -0.5476444784
 C         -6.0582362209       -0.2679231291       -1.3906288788
 C         -7.2656723269       -0.1234790179       -2.0459291347
 C         -8.2997001095       -1.0424346247       -1.8780887273
 C         -8.1467050158       -2.1416188419       -1.0573280132
 C         -6.9417983474       -2.3092913820       -0.3874023379
 C         -6.4388444977       -3.3137124758        0.5067313006
 C         -6.9808337290       -4.4728283229        1.0464424782
 C         -6.2118457352       -5.2213794008        1.9146842482
 C         -4.9230742142       -4.8190621660        2.2593669023
 C         -4.3618246709       -3.6704467400        1.7360616304
 C         -5.1207574861       -2.9265710375        0.8432323891
 C         -2.3990074408       -1.7456015486        0.0669957243
 C         -1.1662563161       -1.1202857723        0.1612157562
 H          0.1222878310       -2.6367300640        2.0024260990
 H          1.0178178876       -3.6729377748        0.8913978011
 H         -0.7404981249       -3.7129179020        0.9006876873
 H          0.0664770454       -1.7350891712       -2.2064566318
 H          0.9415355598       -3.1602912335       -1.6405847473
 H         -0.8171972515       -3.1440136993       -1.6202835986
 H          2.6499041647       -2.7471056491       -0.2658213750
 H          3.5832677576       -2.3525342660       -2.5142235742
 H          4.6031434341       -3.8349905516       -4.1995193241
 H          6.8793931711       -4.6921624724       -3.9176590479
 H          8.2266743176       -4.0698411092       -1.9399303159
 H          9.1493437272       -3.0128592483        0.4299440881
 H          9.3992901630       -1.8112676804        2.5763191617
 H          7.5500585475       -0.4962474632        3.4957533437
 H          5.4003978710       -0.3124358989        2.2998905449
 H          4.6106500401        0.9838240313        0.3074068567
 H          2.4469860766        2.0678124789        0.6388480585
 H          0.6731696155        2.0181281175        2.9075553955
 H          0.6821798016        4.4371987125        3.4236390252
 H         -0.0241963468        9.4159266640        1.5416222840
 H         -0.5840735703       10.8199736121       -0.4067850860
 H         -1.1585259538        9.7533124790       -2.5672138802
 H         -1.1642260939        7.2784123849       -2.7386711370
 H         -0.5277377563        2.9185022178       -1.0977871652
 H         -2.3083214566        1.9770189023        0.9394977919
 H         -4.4589162229        0.8272747929        0.7978061529
 H         -5.2567307549        0.4400931305       -1.5384384327
 H         -7.4104341665        0.7191572819       -2.7060366650
 H         -9.2295593692       -0.8923070497       -2.4064320191
 H         -8.9429497276       -2.8610411201       -0.9381689503
 H         -7.9853753842       -4.7760744880        0.7922285957
 H         -6.6136423387       -6.1275442755        2.3432910931
 H         -4.3515332528       -5.4168171465        2.9544130548
 H         -3.3702337796       -3.3551851997        2.0247921294
 H         -2.4541926076       -2.7923722454       -0.1884755963
