  78
 
 C          0.9698385046       -6.4592742542       -0.8794261080
 N         -0.0452291701       -5.4511055082       -0.7297660719
 C         -1.3978201014       -5.6171862998       -0.7403020100
 N         -2.0744733084       -4.5183585924       -0.5862605148
 C         -1.1311498423       -3.5300418147       -0.4616443888
 C         -1.1630719258       -2.1397916153       -0.2806359042
 C         -2.3842850168       -1.3477718729       -0.1810860846
 C         -3.6402022915       -1.9571526668       -0.2177741855
 C         -4.7872469926       -1.1958472222       -0.1259234717
 C         -4.7044580487        0.1892582956        0.0032949048
 N         -5.8774933957        0.9676594353        0.0955965403
 C         -6.7517079747        0.8147124726        1.1753486804
 C         -6.4998614192       -0.0703833539        2.2169672271
 C         -7.3849187643       -0.1912069205        3.2778459471
 C         -8.5304869090        0.5775598041        3.3232479557
 C         -8.7822563389        1.4874004644        2.3064352663
 C         -7.9020756891        1.6121426909        1.2473811180
 O         -8.2057585360        2.5586521460        0.2963859920
 C         -7.3403032321        2.6891362602       -0.7648008542
 C         -7.6697920098        3.6247331263       -1.7281262988
 C         -6.8636188760        3.7939686938       -2.8446122234
 C         -5.7389271870        3.0079140781       -2.9954830758
 C         -5.4037956608        2.0693989318       -2.0310473931
 C         -6.1832124702        1.9087330875       -0.8915019437
 C         -3.4528224585        0.8025210851        0.0394041893
 C         -2.3077773307        0.0412112896       -0.0509150904
 N          0.0022453606       -1.5003112020       -0.1983892416
 C          1.1608785673       -2.1524910703       -0.2880258927
 C          2.3838523380       -1.3547616065       -0.1765618484
 C          2.3140273207        0.0199000047        0.0491818635
 C          3.4651884812        0.7717087985        0.1581015704
 C          4.7128924642        0.1618275893        0.0455329543
 N          5.8919974437        0.9303010449        0.1609780825
 C          6.2044831935        1.5740447724        1.3609888781
 C          5.4212912313        1.4394077501        2.5011131478
 C          5.7610257937        2.0898820632        3.6779654336
 C          6.8929430467        2.8774607024        3.7391867368
 C          7.7029226567        2.9971612424        2.6187853232
 C          7.3695558211        2.3485154923        1.4442441518
 O          8.2384978766        2.4904504467        0.3867928067
 C          7.9216982562        1.8399035770       -0.7836072947
 C          8.7999556293        1.9920517041       -1.8404216804
 C          8.5350885489        1.3921944116       -3.0634163220
 C          7.3778020851        0.6569736963       -3.2227745236
 C          6.4947485202        0.4999687757       -2.1648424417
 C          6.7604521296        1.0678784740       -0.9245787445
 C          4.7892166743       -1.2108938187       -0.1806340168
 C          3.6358490031       -1.9595661847       -0.2900201745
 N          1.3048752094       -3.4673038967       -0.4699486922
 C          0.1552871028       -4.1148482570       -0.5502665902
 H          0.8859286477       -6.9405073235       -1.8553413949
 H          0.8726241409       -7.2143490424       -0.0978283373
 H          1.9387177182       -5.9705600716       -0.7965764423
 H         -1.8521508824       -6.5814873102       -0.8658009904
 H         -3.7040963014       -3.0282819401       -0.3271476595
 H         -5.7575476561       -1.6687461974       -0.1621872498
 H         -5.6003900588       -0.6653381320        2.2031356580
 H         -7.1643526086       -0.8904129825        4.0698167601
 H         -9.2245020060        0.4856402323        4.1437509370
 H         -9.6577858515        2.1174890898        2.3194554975
 H         -8.5661158136        4.2083113055       -1.5874914894
 H         -7.1270965449        4.5285477419       -3.5891139335
 H         -5.1118421008        3.1132178369       -3.8674725329
 H         -4.5308027456        1.4512189697       -2.1692783365
 H         -3.3899380617        1.8756071691        0.1445131824
 H         -1.3342124095        0.5033101616       -0.0178197250
 H          1.3442765533        0.4834616814        0.1309242840
 H          3.4083772050        1.8367344977        0.3283412442
 H          4.5414611262        0.8162135538        2.4702080698
 H          5.1308296308        1.9706437693        4.5459404047
 H          7.1595315486        3.3902500160        4.6498544886
 H          8.6047166042        3.5889091223        2.6373962485
 H          9.6848486370        2.5896936253       -1.6871416945
 H          9.2282563911        1.5143999303       -3.8807229365
 H          7.1475590285        0.1999511624       -4.1730057744
 H          5.5862403956       -0.0639579931       -2.3063227732
 H          5.7572227112       -1.6828656632       -0.2631708970
 H          3.6863733939       -3.0234304598       -0.4589022952
