  70
 
 C          6.3726696583       -1.1612236589       -0.6594836748
 C          5.7870206880        0.2109935230       -0.2983918798
 C          5.7168338330        1.0943742909       -1.5519950283
 C          6.7294476924        0.8804541329        0.7052961970
 C          4.3804383948        0.0299215805        0.2506670653
 C          3.4120984834       -0.5902120449       -0.5323541637
 C          2.1128730526       -0.7585826858       -0.0944973465
 C          1.7476997766       -0.3046639286        1.1652175819
 O          0.4707339738       -0.3321891906        1.6548699839
 C         -0.5052607045       -1.0951594675        1.0836177044
 C         -0.4004644148       -2.4417033731        0.7792567269
 C         -1.5078093732       -3.1147094053        0.2862594618
 C         -2.7320687684       -2.4818326039        0.1028839459
 C         -3.9679313502       -3.1955231267       -0.4231613146
 C         -4.4435001600       -2.4951926589       -1.7043317808
 C         -5.0688225642       -3.1297489021        0.6443283307
 C         -3.7046675467       -4.6673652898       -0.7518649943
 C         -2.8178664888       -1.1279425415        0.4225028155
 C         -1.7177011786       -0.4373931573        0.8875437294
 P         -1.6733077349        1.3230965675        1.3698744878
 O         -1.6265504640        1.5601163214        2.8155562010
 C         -0.2593728172        2.0126106463        0.4488107019
 C          0.5644404686        2.8928876211        1.1337921759
 C          1.6971376400        3.4006827761        0.5245065999
 C          2.0072369767        3.0288972805       -0.7728815982
 C          1.1842994951        2.1517079409       -1.4595565592
 C          0.0524860045        1.6408087847       -0.8513954380
 C         -3.1561950207        2.0476255858        0.5929133244
 C         -3.4717196546        1.8943204590       -0.7513865021
 C         -4.6180440116        2.4766940872       -1.2599363363
 C         -5.4498671009        3.2163329625       -0.4333923019
 C         -5.1350986761        3.3746644054        0.9059023020
 C         -3.9894752551        2.7903846951        1.4163957136
 C          2.7008973749        0.3129763492        1.9646796487
 C          3.9943315127        0.4749321321        1.5099978773
 H          6.3957132277       -1.8019777618        0.2194291498
 H          7.3888696087       -1.0489366878       -1.0316344194
 H          5.7833757262       -1.6558552193       -1.4263308182
 H          5.2932487413        2.0643749749       -1.3007539441
 H          6.7133955522        1.2468389815       -1.9612245375
 H          5.0970081806        0.6413194914       -2.3206938946
 H          6.8210764219        0.2860583329        1.6112460149
 H          6.3803557706        1.8767580630        0.9657474619
 H          7.7196852905        0.9765805045        0.2643081319
 H          3.6616370885       -0.9472053449       -1.5202001430
 H          1.3820141554       -1.2234610337       -0.7399968954
 H          0.5317786101       -2.9645473830        0.9370144831
 H         -1.3951440032       -4.1614646749        0.0560745870
 H         -3.6579064423       -2.5131534911       -2.4571915602
 H         -4.7131512190       -1.4598398960       -1.5145859980
 H         -5.3165644352       -3.0048499346       -2.1060590147
 H         -5.9602877785       -3.6463396950        0.2950474217
 H         -4.7305721433       -3.6055767130        1.5622531744
 H         -5.3375797250       -2.1023602244        0.8736876014
 H         -4.6188108932       -5.1229263194       -1.1268140821
 H         -2.9406843608       -4.7674844700       -1.5194874111
 H         -3.3960372172       -5.2170546252        0.1340725766
 H         -3.7476346503       -0.5912285945        0.3038618408
 H          0.3088125543        3.1501397034        2.1515053576
 H          2.3428395294        4.0797678569        1.0618507206
 H          2.8941268812        3.4182992054       -1.2507662999
 H          1.4325131292        1.8568534360       -2.4689473775
 H         -0.5746343389        0.9356602450       -1.3790106021
 H         -2.8272564562        1.3158333522       -1.3966928613
 H         -4.8662968484        2.3536460879       -2.3045558966
 H         -6.3445041019        3.6683886915       -0.8362900891
 H         -5.7827934926        3.9511434848        1.5501639449
 H         -3.7233194982        2.8928117011        2.4584232302
 H          2.4017637760        0.6748760616        2.9355541394
 H          4.7000436196        0.9638677872        2.1607473520
