  76
 
 C          7.2160600925       -4.1631604230        1.5307147710
 C          6.0315578512       -3.5471390335        1.8922185348
 C          5.6423069017       -2.3639519747        1.2871264648
 C          6.4302011757       -1.7793773711        0.2996202626
 C          7.6408381855       -2.4018890582       -0.0449489439
 C          8.0238036644       -3.5840436906        0.5640699880
 O          8.4945099819       -1.8724370269       -0.9790432839
 C          8.1265707854       -0.6971358694       -1.5834546151
 C          8.9946129748       -0.1738171201       -2.5256680906
 C          8.6765630741        1.0008042128       -3.1897078516
 C          7.4820115823        1.6411634268       -2.9134119985
 C          6.6092195216        1.1237135173       -1.9710996008
 C          6.9204074113       -0.0442365397       -1.2808098925
 N          6.0692076391       -0.5936591754       -0.3292523260
 C          4.8390371728        0.0377928477       -0.0055991002
 C          3.6283627034       -0.5778047495       -0.3847763299
 C          2.4375360940        0.0153393709       -0.0714037212
 C          2.3962684113        1.2402240856        0.6205132459
 C          3.6167925102        1.8677870775        0.9956350579
 C          3.5797809932        3.0965399986        1.6872541832
 C          2.3892027150        3.6890260112        2.0080414948
 C          1.1588410681        3.0953145373        1.6623890108
 N         -0.0011919006        3.6721137974        1.9873690734
 C         -1.1609517203        3.0932859206        1.6650240438
 C         -2.3915453621        3.6844279452        2.0142152941
 C         -3.5818156246        3.0902243932        1.6954704201
 C         -3.6182738394        1.8624736478        1.0020386395
 C         -4.8313120871        1.2259017543        0.6769831626
 C         -4.8396714816        0.0324539458       -0.0002540488
 N         -6.0695929529       -0.6001482700       -0.3224630280
 C         -6.9247759187       -0.0487270513       -1.2693082645
 C         -6.6165079449        1.1207516492       -1.9583305424
 C         -7.4931925628        1.6401893551       -2.8959229552
 C         -8.6888033322        1.0003172648       -3.1687564443
 C         -9.0039815810       -0.1758406004       -2.5060743391
 C         -8.1320328682       -0.7011512186       -1.5685798386
 O         -8.4972747367       -1.8779242828       -0.9654127633
 C         -7.6390030602       -2.4101555953       -0.0371353250
 C         -8.0186463096       -3.5945501736        0.5696189460
 C         -7.2061596279       -4.1766786844        1.5304520235
 C         -6.0202291973       -3.5613959879        1.8885245006
 C         -5.6344262590       -2.3758430199        1.2858702829
 C         -6.4270907832       -1.7882261079        0.3040034981
 C         -3.6287856045       -0.5803757088       -0.3832660905
 C         -2.4382663113        0.0138696140       -0.0708069101
 C         -2.3975190705        1.2374220650        0.6234984795
 C         -1.1589200926        1.8508567733        0.9558987351
 N         -0.0006532515        1.2823006560        0.6204125454
 C          1.1573675199        1.8524056142        0.9541024552
 C          4.8301972373        1.2325782861        0.6692357521
 H          7.5200328905       -5.0856729600        1.9993302200
 H          5.4011779861       -3.9826813855        2.6519482165
 H          4.7225301668       -1.8844256991        1.5821437958
 H          8.9591810049       -4.0324759916        0.2686422854
 H          9.9119164706       -0.7043631698       -2.7265259299
 H          9.3586161627        1.4035936824       -3.9215336260
 H          7.2189194364        2.5497243750       -3.4326361821
 H          5.6758252560        1.6242408619       -1.7680173072
 H          3.6597829272       -1.5136198384       -0.9222721438
 H          1.4994199227       -0.4381788039       -0.3518172288
 H          4.5115486243        3.5667719916        1.9651806226
 H          2.3560950656        4.6285791359        2.5387836821
 H         -2.3588541025        4.6234014963        2.5460060656
 H         -4.5137658103        3.5583844801        1.9762690199
 H         -5.7627632659        1.6895053679        0.9694444971
 H         -5.6823039575        1.6208939290       -1.7580153282
 H         -7.2322631785        2.5498614339       -3.4142968965
 H         -9.3738873727        1.4046437697       -3.8968940037
 H         -9.9220228771       -0.7060656608       -2.7043986390
 H         -8.9552390144       -4.0423203071        0.2770515966
 H         -7.5075158886       -5.1009786025        1.9972219450
 H         -5.3859975466       -3.9993140352        2.6436726356
 H         -4.7136059123       -1.8968566712        1.5784779559
 H         -3.6597681875       -1.5149281834       -0.9229779610
 H         -1.5000016161       -0.4375457218       -0.3541020309
 H          5.7615008352        1.6982307302        0.9588875893
