  57
 
 O          3.3955323893       -2.5391857770       -0.0679213543
 C          3.9505638036       -1.4080519111        0.0056160624
 C          5.3751866182       -1.3070164759        0.2648602980
 C          6.0610690416       -2.4976627789        0.5928001484
 C          7.3917539436       -2.4735611996        0.9283097268
 C          8.1016027909       -1.2747259437        0.9532810014
 C          7.4547548022       -0.0999806017        0.6092773177
 C          6.1189879187       -0.1279874297        0.2653926960
 S          5.3993434523        1.3921424845       -0.3263249082
 O          5.8265719827        2.4980238798        0.4910141131
 O          5.6594626745        1.4935476996       -1.7404578521
 C          3.6581782342        1.1051844921       -0.0952942526
 C          2.8270458180        2.2060704956       -0.0534079401
 C          1.4557066933        2.0419339688       -0.0266927420
 C          0.9105050317        0.7462806176       -0.0629224123
 C         -0.5397986887        0.5395656218       -0.0458757048
 C         -1.3716000628        1.3403298272        0.7401843501
 C         -2.7336732357        1.1404312281        0.7663728306
 C         -3.3143907963        0.1273615372       -0.0027123733
 N         -4.6916297592       -0.0812047659        0.0231622000
 C         -5.5644829217        1.0034846715        0.1569860802
 C         -5.2828949375        2.2174866408       -0.4719103555
 C         -6.1483472472        3.2848169040       -0.3361923778
 C         -7.3032897913        3.1599792300        0.4199254701
 C         -7.5882633024        1.9555465141        1.0437958967
 C         -6.7281075399        0.8825930005        0.9182490583
 C         -5.2061784168       -1.3778553457       -0.0822827557
 C         -4.5492969521       -2.4495128423        0.5249428599
 C         -5.0610998850       -3.7272806403        0.4153853767
 C         -6.2307432044       -3.9563272581       -0.2921499116
 C         -6.8882024785       -2.8946462522       -0.8935998961
 C         -6.3834191014       -1.6131678926       -0.7942649931
 C         -2.4877273100       -0.6747281502       -0.7958178091
 C         -1.1264654277       -0.4724322628       -0.8103301996
 C          1.7547985010       -0.3469614966       -0.0884757660
 C          3.1568298409       -0.1998797034       -0.0729245972
 H          5.4933436465       -3.4161740489        0.5780173774
 H          7.8921388834       -3.3973079520        1.1801584023
 H          9.1456130527       -1.2598026895        1.2240495621
 H          7.9661030819        0.8498277454        0.5946949611
 H          3.2802623943        3.1850798131       -0.0608972403
 H          0.8074555891        2.9037526470       -0.0251651267
 H         -0.9373269736        2.1081979909        1.3619516152
 H         -3.3601014026        1.7526231661        1.3983149013
 H         -4.3913282042        2.3095506372       -1.0742460714
 H         -5.9239187971        4.2176096824       -0.8310141404
 H         -7.9774171779        3.9962047018        0.5220644562
 H         -8.4827637713        1.8532111888        1.6394538041
 H         -6.9427237139       -0.0512172189        1.4165192568
 H         -3.6466463926       -2.2692034719        1.0895116540
 H         -4.5473230845       -4.5481902140        0.8921199007
 H         -6.6275629505       -4.9562748274       -0.3744375399
 H         -7.7961200219       -3.0667345096       -1.4517187546
 H         -6.8874326479       -0.7884160609       -1.2760756508
 H         -2.9286395595       -1.4440446033       -1.4122882788
 H         -0.5049458307       -1.0845349345       -1.4452847836
 H          1.3677238017       -1.3552342346       -0.0764005133
