  45
 
 C         -2.9539280176        2.0137218812       -1.6626575963
 C         -3.6284409601        1.6904113836       -0.4984495647
 C         -3.4072778529        0.4707790779        0.1171006048
 C         -2.5015178125       -0.4364291256       -0.4221766371
 C         -2.2845708041       -1.7395049182        0.2238119351
 C         -3.3661281224       -2.5752177175        0.4874477130
 C         -3.1510796208       -3.8278622986        1.0348764229
 C         -1.8417588164       -4.2131279807        1.2835304786
 N         -0.8069993546       -3.4273096287        1.0642994668
 C         -1.0065425652       -2.2119077342        0.5678326894
 C          0.1959402059       -1.3742696875        0.4193074764
 C          1.4342095318       -1.9628756076        0.1754852061
 C          2.5458658770       -1.1377307747        0.0211207556
 C          3.8507773845       -1.7152313330       -0.2465883394
 C          5.0919649571       -1.1095183471       -0.3583973951
 N          5.9349330585       -2.1329681092       -0.6130634062
 N          5.2647989057       -3.2838030481       -0.6572108805
 N          4.0365647988       -3.0466227268       -0.4415310883
 C          2.3657210612        0.2391674721        0.1203109556
 C          1.0895564844        0.7302126024        0.3863311187
 C          0.8494874250        2.1757418686        0.4953879301
 C         -0.4226883438        2.6587703782        0.8048406538
 C         -0.6144764379        4.0254021137        0.8754087080
 C          0.4644415220        4.8656985218        0.6427969856
 C          1.6906081936        4.2866714450        0.3504114443
 N          1.8848961810        2.9843833688        0.2757285032
 N          0.0346766119       -0.0623038452        0.5369624633
 C         -1.8404749035       -0.1106412320       -1.6037463901
 C         -2.0628131791        1.1075823854       -2.2150415510
 H         -3.1226255293        2.9674007483       -2.1409258115
 H         -4.3283059496        2.3911148403       -0.0658027261
 H         -3.9233740682        0.2253229555        1.0347007075
 H         -4.3661865011       -2.2437447560        0.2436156674
 H         -3.9740773095       -4.4917706550        1.2498021106
 H         -1.6076484117       -5.1912272818        1.6831315351
 H          1.5291239709       -3.0333092818        0.1039449930
 H          5.4165328986       -0.0946664417       -0.2765862409
 H          6.9323439390       -2.1038955030       -0.7588492116
 H          3.1762970001        0.9381341655       -0.0013431897
 H         -1.2206681426        1.9558130319        0.9746198808
 H         -1.5887045110        4.4314097574        1.1079191635
 H          0.3598658229        5.9388121462        0.6872252720
 H          2.5654435803        4.8974238437        0.1637336112
 H         -1.1529951364       -0.8207801015       -2.0407551268
 H         -1.5407680604        1.3527441481       -3.1285582969
