67

O      2.426178    0.716799   -1.978840
P      2.774084    0.203216   -0.590655
C      2.010222    1.184868    0.712852
C      1.796516    2.552914    0.481438
C      1.235025    3.366299    1.465898
C      0.872227    2.819835    2.693609
C      1.081087    1.464852    2.940528
C      1.656042    0.653518    1.960772
C      4.557499    0.380230   -0.282173
C      5.397344    0.828001   -1.312940
C      6.769812    0.961855   -1.102292
C      7.317310    0.650571    0.140716
C      6.494128    0.206446    1.174040
C      5.120792    0.071358    0.965375
C      2.389358   -1.524561   -0.447443
C      3.335862   -2.549080   -0.651424
C      2.993086   -3.900319   -0.576710
C      1.677239   -4.288701   -0.313100
C      0.701189   -3.292457   -0.130877
C      1.083108   -1.956328   -0.204987
O      0.000268   -1.156207   -0.000260
C     -1.082530   -1.956447    0.204248
C     -2.388814   -1.524807    0.446778
P     -2.773519    0.202943    0.590400
O     -2.424859    0.716407    1.978428
C     -4.557137    0.379887    0.283042
C     -5.396522    0.826232    1.314812
C     -6.769148    0.959938    1.105112
C     -7.317264    0.649945   -0.137948
C     -6.494546    0.207256   -1.172265
C     -5.121049    0.072294   -0.964540
C     -2.010415    1.184708   -0.713469
C     -1.655996    0.653238   -1.961276
C     -1.081601    1.464649   -2.941300
C     -0.873573    2.819828   -2.694780
C     -1.236670    3.366424   -1.467210
C     -1.797592    2.552968   -0.482476
C     -3.335269   -2.549422    0.650450
C     -2.992414   -3.900624    0.575388
C     -1.676549   -4.288874    0.311694
C     -0.700542   -3.292532    0.129774
H      2.059620    2.981657   -0.484242
H      1.065587    4.420689    1.266944
H      0.413278    3.444951    3.454615
H      0.779560    1.036428    3.892969
H      1.806097   -0.399819    2.179538
H      4.974975    1.076223   -2.285609
H      7.410246    1.312797   -1.907511
H      8.386276    0.758905    0.305529
H      6.922298   -0.030705    2.144809
H      4.493746   -0.275006    1.782868
H      4.367326   -2.291828   -0.889800
H      3.755996   -4.659532   -0.737787
H      1.415036   -5.341388   -0.262873
H     -4.973656    1.073445    2.287527
H     -7.409220    1.309746    1.911115
H     -8.386361    0.758172   -0.302007
H     -6.923201   -0.028871   -2.143072
H     -4.494379   -0.272958   -1.782795
H     -1.805422   -0.400252   -2.179753
H     -0.779878    1.036133   -3.893641
H     -0.415072    3.445022   -3.455999
H     -1.067953    4.421003   -1.268608
H     -2.060932    2.981825    0.483095
H     -4.366751   -2.292303    0.888867
H     -3.755288   -4.659920    0.736248
H     -1.414294   -5.341536    0.261185
