45

C      2.906521   -3.152801   -1.049318
C      2.450242   -2.271383   -2.023437
C      1.521009   -1.280471   -1.693685
C      0.996043   -1.167179   -0.388475
C      0.000028    0.000010   -0.000000
C     -0.996098    0.388510   -1.167091
C     -1.521154    1.693704   -1.280204
C     -2.450534    2.023497   -2.270962
C     -2.906861    1.049432   -3.152418
C     -2.450690   -0.258644   -3.030534
C     -1.521312   -0.588496   -2.039792
C     -0.996023   -0.388424    1.167177
C     -1.521204   -1.693571    1.280300
C     -2.450526   -2.023298    2.271136
C     -2.906660   -1.049212    3.152673
C     -2.450356    0.258825    3.030793
C     -1.521045    0.588611    2.039968
C      0.996175    1.167119    0.388389
C      1.521315    1.280323    1.693537
C      2.450682    2.271137    2.023207
C      2.906919    3.152553    1.049054
C      2.450669    3.030574   -0.258981
C      1.521303    2.039779   -0.588707
C      1.521217   -2.039845    0.588587
C      2.450464   -3.030724    0.258781
H      3.634010   -3.918470   -1.304140
H      2.827681   -2.341955   -3.040253
H      1.221340   -0.584333   -2.474508
H     -1.221454    2.474473   -0.584019
H     -2.828060    3.040295   -2.341374
H     -3.634466    1.304286   -3.917965
H     -2.828345   -1.030380   -3.696230
H     -1.221740   -1.630783   -1.950380
H     -1.221651   -2.474354    0.584061
H     -2.828168   -3.040055    2.341547
H     -3.634215   -1.304010    3.918284
H     -2.827854    1.030582    3.696563
H     -1.221364    1.630872    1.950571
H      1.221688    0.584180    2.474374
H      2.828269    2.341631    3.039970
H      3.634512    3.918143    1.303815
H      2.828242    3.696241   -1.030788
H      1.221659    1.950301   -1.630970
H      1.221703   -1.950303    1.630879
H      2.828088   -3.696385    1.030563
