  107
 
 C          0.9920826650        5.0216988301        1.7171528551
 C          0.8047316329        4.5566976498        3.1640195122
 C         -0.3484589173        5.3620985497        3.7794602448
 C          2.1056967662        4.8426793353        3.9275371097
 C          0.4844901867        3.0734125313        3.2661184250
 C          0.3021270036        2.4998167645        4.5247233754
 C          0.0157384333        1.1568310865        4.6894574261
 C         -0.0967996190        0.3555658634        3.5661314834
 C          0.0732704300        0.9196771521        2.2971195209
 C          0.3649105363        2.2573757638        2.1433266566
 C         -0.0808339130       -0.1345307650        1.2151259196
 C          1.2193731643       -0.1983451514        0.4438428325
 C          2.2382359139       -1.0622683546        0.8243842950
 C          3.4496964602       -1.0638958829        0.1597508675
 C          3.6646057485       -0.1963419926       -0.9059435877
 N          4.8902520589       -0.1944158808       -1.5859184687
 C          5.6587350887        0.9194643017       -1.8578240350
 C          5.4555041710        2.2433234140       -1.4949966415
 C          6.4050752955        3.1704059621       -1.8788656597
 C          7.5372882370        2.7966598340       -2.5996475307
 C          7.7572935333        1.4776406878       -2.9421245354
 C          6.8171988972        0.5268664934       -2.5670228788
 C          6.7321917561       -0.8973004013       -2.7298315037
 C          7.5465740293       -1.8392327926       -3.3445328289
 C          7.1504843207       -3.1615770358       -3.3376834129
 C          5.9522324500       -3.5473034107       -2.7406460289
 C          5.1253025050       -2.6290884239       -2.1228058630
 C          5.5292357123       -1.3016932298       -2.1062277732
 C          2.6490318809        0.6741493017       -1.2902535332
 C          1.4450915479        0.6751509554       -0.6151030889
 C         -1.2778897041        0.0918821662        0.3168075133
 C         -1.3575441209       -0.5484349815       -0.9154771919
 C         -2.4718804945       -0.4058365991       -1.7177127364
 C         -3.5340485497        0.3913286147       -1.3021038409
 N         -4.6604912120        0.5506912075       -2.1206664225
 C         -4.6441159970        0.9129301674       -3.4526043645
 C         -3.5686129268        1.2359282286       -4.2677559800
 C         -3.8347621137        1.5939878053       -5.5752779782
 C         -5.1377207686        1.6401521220       -6.0663230568
 C         -6.2133303152        1.3426560255       -5.2538311946
 C         -5.9714358214        0.9803013754       -3.9352844767
 C         -6.8240937135        0.6348396373       -2.8327005413
 C         -8.1999857647        0.5121567323       -2.6903466914
 C         -8.7067061026        0.1309527357       -1.4641989062
 C         -7.8594714645       -0.1415132097       -0.3922076576
 C         -6.4876700736       -0.0262586449       -0.5087186581
 C         -5.9739076248        0.3802816771       -1.7319224920
 C         -3.4637983886        1.0285108051       -0.0676167614
 C         -2.3502406946        0.8695202619        0.7346401373
 C         -0.3597142198       -1.3735224074        2.0465348981
 C         -0.6010607061       -2.6547386165        1.6117512685
 C         -0.8579270788       -3.6707373200        2.5355563800
 C         -1.1131699759       -5.0786106078        2.0206323371
 C         -2.3384083076       -5.0564363856        1.0954733472
 C          0.1209323009       -5.5546456040        1.2406116949
 C         -1.3829244402       -6.0834170304        3.1437739077
 C         -0.8674505568       -3.3474850314        3.8886659850
 C         -0.6314845366       -2.0566356615        4.3363399049
 C         -0.3767572619       -1.0606095019        3.4121543418
 H          1.2245333544        6.0847257760        1.7062251949
 H          1.8146704950        4.4934470971        1.2401148467
 H          0.0851678107        4.8716421713        1.1356399803
 H         -1.2770596161        5.1518554532        3.2525366474
 H         -0.1430048768        6.4278563355        3.7044534817
 H         -0.4889308828        5.1159979745        4.8282948263
 H          2.0106886177        4.5976362119        4.9815938687
 H          2.3638393463        5.8964445041        3.8457618236
 H          2.9214407852        4.2537592866        3.5129937448
 H          0.3874211813        3.1148092796        5.4079961515
 H         -0.1156310461        0.7437900983        5.6786648417
 H          0.4945981709        2.6542703838        1.1503017749
 H          2.0866871317       -1.7364845694        1.6541804136
 H          4.2412458147       -1.7271681177        0.4749211261
 H          4.5902680294        2.5393840248       -0.9209486179
 H          6.2684366127        4.2079271034       -1.6111211115
 H          8.2546594280        3.5521171860       -2.8839360968
 H          8.6426160951        1.1855056186       -3.4865549301
 H          8.4676622368       -1.5378176621       -3.8202556800
 H          7.7705119920       -3.9103174625       -3.8079123186
 H          5.6616107493       -4.5873909389       -2.7640938132
 H          4.1908677672       -2.9353341986       -1.6769521116
 H          2.8051748327        1.3390721378       -2.1267100256
 H          0.6629497244        1.3513705260       -0.9284460367
 H         -0.5360219164       -1.1626219817       -1.2548201753
 H         -2.5309914829       -0.9211015229       -2.6648978049
 H         -2.5565114064        1.2190664597       -3.8920846103
 H         -3.0142346101        1.8469545241       -6.2306653631
 H         -5.3038030082        1.9218082693       -7.0955123268
 H         -7.2240637246        1.3933339765       -5.6298509653
 H         -8.8553563269        0.7079161255       -3.5256587038
 H         -9.7738615708        0.0322431994       -1.3314346575
 H         -8.2845257255       -0.4532544477        0.5506108220
 H         -5.8380843366       -0.2563965189        0.3224845739
 H         -4.2800052091        1.6578519752        0.2542683135
 H         -2.3104458057        1.3655522025        1.6930498077
 H         -0.5870075049       -2.8668127434        0.5536034366
 H         -2.1811577876       -4.4041335502        0.2408950432
 H         -2.5467482292       -6.0582450036        0.7257391668
 H         -3.2118327215       -4.6999942039        1.6377577641
 H          0.3245758089       -4.9122252602        0.3883216646
 H          0.9970617193       -5.5528401838        1.8861324039
 H         -0.0350698314       -6.5670322468        0.8740230419
 H         -0.5312244877       -6.1586858244        3.8159532331
 H         -2.2657031873       -5.8049714143        3.7146641847
 H         -1.5585307259       -7.0676259405        2.7139952835
 H         -1.0634737796       -4.1087751600        4.6258776541
 H         -0.6480962453       -1.8378740644        5.3938863145
