  92
 
 C         -7.5862392313        4.9535506709       -1.9032351455
 C         -7.6827558129        4.3172061812       -0.5081491120
 C         -9.1395143840        3.9075901529       -0.2703060050
 C         -7.2980501250        5.3506388343        0.5619229313
 C         -6.7229990315        3.1400079595       -0.4293962517
 C         -5.3518462730        3.3683834239       -0.6093339389
 C         -4.4075624087        2.3636479654       -0.5375228954
 C         -4.8451046053        1.0752454371       -0.2619184089
 C         -6.2259907281        0.8115457110       -0.1226501344
 C         -7.1530755908        1.8382704467       -0.1995534703
 C         -6.3505954817       -0.6107636470        0.0718854133
 C         -7.4388681911       -1.4415833385        0.2839546864
 C         -7.2398170169       -2.8037021271        0.4767361296
 C         -8.3879302477       -3.7742220757        0.7062263071
 C         -9.7570204271       -3.0881507336        0.6683222888
 C         -8.3630023890       -4.8498715536       -0.3905437629
 C         -8.2209082943       -4.4325235098        2.0844250281
 C         -5.9264615270       -3.2932470118        0.4750333832
 C         -4.8249464141       -2.4871829774        0.2672339596
 C         -5.0390474321       -1.1348650135        0.0378420969
 N         -4.1349310676       -0.1074014426       -0.1625779570
 C         -2.7563161749       -0.2350003078       -0.2365960233
 C         -1.9128603232        0.6625727307        0.4439333469
 C         -0.5549393193        0.5375347704        0.3740037795
 C          0.0720974805       -0.4895462775       -0.3882671776
 C          1.4844744742       -0.6148135297       -0.4621185043
 C          2.1238525251       -1.8160423506       -0.9014492191
 C          3.4740705288       -1.9395407085       -0.9414835742
 C          4.3366331221       -0.8737825196       -0.5447895747
 C          5.7260814279       -1.0877715644       -0.6049044213
 N          6.2746926120       -2.1136000531       -1.2739192404
 N          7.5772301468       -1.9999046806       -1.2411994491
 C          7.9114087668       -0.9298030233       -0.5388637284
 C          9.2789622218       -0.5697355473       -0.2649362344
 C          9.6765337550        0.1259423503        0.8825403750
 C         11.0106688605        0.4120816933        1.0953648939
 C         11.9729869385        0.0113829860        0.1811628580
 C         11.5914848643       -0.6992234996       -0.9491797156
 C         10.2627233026       -0.9915905148       -1.1703966860
 N          6.7608018247       -0.2955695573       -0.1064012731
 C          6.6793168665        0.8641944940        0.6765612226
 C          6.0245742887        0.8341916404        1.9074339449
 C          5.9621904810        1.9793758730        2.6782215482
 C          6.5517618824        3.1540147833        2.2356792935
 C          7.2048145236        3.1824136054        1.0130969474
 C          7.2712230031        2.0447129081        0.2311081753
 C          3.7114915346        0.3475630133       -0.1662416953
 C          2.3579633263        0.4613916357       -0.1187466127
 C         -0.8049135765       -1.3827483308       -1.0676231999
 C         -2.1631745500       -1.2631105630       -0.9923384540
 H         -8.2842704840        5.7842534804       -1.9827352601
 H         -6.5864628042        5.3299084849       -2.1011146867
 H         -7.8329533399        4.2212838994       -2.6696397196
 H         -9.2654629118        3.4620638765        0.7139469819
 H         -9.7753553795        4.7891196235       -0.3227897626
 H         -9.4788806647        3.2057832410       -1.0287287469
 H         -7.9893102726        6.1902909814        0.5339619884
 H         -6.2935293651        5.7332352579        0.4044973251
 H         -7.3410787462        4.9014688693        1.5523536079
 H         -5.0053336557        4.3682252282       -0.8198065355
 H         -3.3642334711        2.5800923566       -0.7077850235
 H         -8.1976058064        1.6035826385       -0.0843638581
 H         -8.4250256427       -1.0096019501        0.3022658876
 H        -10.5372269804       -3.8306487366        0.8236683775
 H         -9.8443301803       -2.3424652614        1.4553131707
 H         -9.9319219457       -2.6157756171       -0.2956807678
 H         -9.1908760205       -5.5421208679       -0.2523931980
 H         -7.4380856895       -5.4194146176       -0.3697911836
 H         -8.4584837767       -4.3894148235       -1.3720721494
 H         -9.0503237351       -5.1098210554        2.2767517333
 H         -7.2972086488       -5.0012526905        2.1450852949
 H         -8.2063273376       -3.6740475088        2.8648227050
 H         -5.7532764303       -4.3437377556        0.6495968946
 H         -3.8296196267       -2.9023979758        0.3012723385
 H         -2.3545120216        1.4229266807        1.0712562488
 H          0.0550124704        1.2090242093        0.9569338376
 H          1.5191665860       -2.6669927544       -1.1739212564
 H          3.9407978800       -2.8590122415       -1.2603038044
 H          8.9463562400        0.4200380588        1.6211822974
 H         11.3023202736        0.9481285572        1.9870932424
 H         13.0135849333        0.2435426798        0.3519392332
 H         12.3376273346       -1.0243991512       -1.6595683897
 H          9.9518634942       -1.5469469253       -2.0421986088
 H          5.5693277353       -0.0864409438        2.2435696051
 H          5.4553900337        1.9518812381        3.6313273980
 H          6.5024994245        4.0451737779        2.8426056381
 H          7.6625899237        4.0956024957        0.6631862560
 H          7.7784780004        2.0570836525       -0.7228807754
 H          4.3202969338        1.2109830228        0.0540654176
 H          1.9348349872        1.4200324881        0.1404158251
 H         -0.3896512424       -2.1483071489       -1.7031524573
 H         -2.7962448562       -1.9277195823       -1.5613931624
