  108
 
 C         -7.3648121673        1.5664861428       -1.3951185798
 C         -7.3322568424        0.2012209465       -1.1586074884
 C         -6.1457108834       -0.4942311066       -1.2816262015
 C         -4.9769757159        0.1761939814       -1.6377778459
 C         -3.7079600993       -0.5481933528       -1.6777492221
 N         -2.5936072889        0.1832894127       -1.6348262638
 C         -1.4186964292       -0.4172053370       -1.5307160899
 C         -0.2308709049        0.3998544789       -1.2433755888
 C          0.9797838305        0.1322901475       -1.8741806028
 C          2.1183451496        0.8429720072       -1.5605900992
 C          2.0721760667        1.8355207660       -0.5826249287
 N          3.2446015698        2.5131857465       -0.2348781925
 C          3.4412646594        3.8755505315       -0.3975192393
 C          2.5182884859        4.8795402786       -0.6403631082
 C          2.9890989585        6.1722257191       -0.7754081076
 C          4.3477194335        6.4620846206       -0.6832574715
 C          5.2742678220        5.4615852878       -0.4670370661
 C          4.8231776134        4.1559075272       -0.3256425898
 C          5.4876678576        2.8994842075       -0.1225891616
 C          6.8391732625        2.5641500117       -0.0498758676
 C          7.2042246309        1.2475615763        0.1127896789
 C          6.2035584855        0.2899194982        0.2802236727
 C          4.8199496179        0.5922928557        0.2406652667
 C          4.1258256539       -0.6358073101        0.5262822030
 C          2.8022874553       -0.9759462541        0.7927011075
 C          2.4924697625       -2.2883637030        1.0855271634
 C          3.4783367412       -3.2691491192        1.1442173637
 C          4.8065983067       -2.9524730334        0.9433755708
 C          5.1222795834       -1.6359712599        0.6398292837
 N          6.3654429734       -1.0629894933        0.4878161616
 C          7.5895112476       -1.7424643389        0.5842882794
 C          8.5646750722       -1.3109064930        1.4781710180
 C          9.7681604126       -1.9859840889        1.5644617929
 C         10.0039619015       -3.0981736890        0.7734371312
 C          9.0305981482       -3.5340719210       -0.1101264847
 C          7.8282043115       -2.8591146716       -0.2110477084
 C          4.4770168516        1.9161496218       -0.0476175963
 C          0.8654839342        2.1309906538        0.0414459378
 C         -0.2831919360        1.4207438705       -0.2791123803
 N         -1.4814535682        1.7249941075        0.3859356931
 C         -2.1792047292        2.9076849409        0.2164977835
 C         -1.7717019957        4.1006334595       -0.3587198441
 C         -2.6837664143        5.1379237029       -0.4096083255
 C         -3.9761705906        4.9958425167        0.0911244384
 C         -4.3973456009        3.8030324514        0.6438551098
 C         -3.4956479952        2.7495511655        0.7027164122
 C         -3.5962882786        1.3931376577        1.1498071106
 C         -4.6193442686        0.5717566439        1.5979702396
 O         -5.9239293447        0.8999771329        1.7774438585
 C         -6.5565665905       -0.2530120658        2.1301983904
 C         -7.9065698652       -0.4042563696        2.3857856978
 C         -8.3511802724       -1.6714940136        2.7198711799
 C         -7.4749952504       -2.7508014261        2.7964156054
 C         -6.1257818173       -2.5981421633        2.5434413096
 C         -5.6564599507       -1.3354158909        2.2065021833
 C         -4.3734908162       -0.7876492876        1.8610729795
 C         -3.0887232614       -1.3232088096        1.7449468331
 C         -2.0568434008       -0.5251733341        1.3041283833
 C         -2.3311839429        0.7981004166        0.9531526424
 C         -1.3593309879       -1.8119076733       -1.5734562484
 S          0.0117843024       -2.8758432024       -1.4319899268
 C         -1.0472088127       -4.2732901919       -1.4571619869
 C         -0.6479149967       -5.5977039545       -1.3784104864
 C         -1.6212141358       -6.5779132591       -1.4080764559
 C         -2.9709804000       -6.2482175535       -1.5136573173
 C         -3.3696941662       -4.9305760266       -1.5932035280
 C         -2.4035463885       -3.9295874825       -1.5667711568
 C         -2.5871037693       -2.5052464170       -1.6274377613
 N         -3.7491448432       -1.8751766396       -1.6602679309
 C         -5.0166913231        1.5469160891       -1.8819289917
 C         -6.2079462979        2.2351769887       -1.7623248666
 H         -8.2926657199        2.1099546460       -1.2902797988
 H         -8.2324576641       -0.3199846201       -0.8664501059
 H         -6.0990883449       -1.5541196740       -1.0845784686
 H          1.0217339494       -0.6295206093       -2.6375494249
 H          3.0519376127        0.6275264707       -2.0560154328
 H          1.4647604885        4.6655556520       -0.7291819808
 H          2.2878658785        6.9728969174       -0.9581781436
 H          4.6775949088        7.4846860818       -0.7907777393
 H          6.3289194614        5.6847817800       -0.4099420899
 H          7.5893979152        3.3341179777       -0.1408258016
 H          8.2432311312        0.9573857121        0.1195281277
 H          2.0271880362       -0.2284484010        0.8070227708
 H          1.4675051698       -2.5590044807        1.2902407425
 H          3.2033704533       -4.2866421661        1.3793263864
 H          5.5792906025       -3.6997939711        1.0437002186
 H          8.3674847680       -0.4572843863        2.1093306104
 H         10.5221282870       -1.6467748328        2.2592576017
 H         10.9434984664       -3.6247135488        0.8464435701
 H          9.2112146510       -4.3999521866       -0.7297977052
 H          7.0728197685       -3.1837249712       -0.9112507832
 H          0.8254883621        2.8818681736        0.8162485541
 H         -0.7800281822        4.2149820523       -0.7690881929
 H         -2.3885806902        6.0785147281       -0.8511659820
 H         -4.6571716183        5.8321826918        0.0348355453
 H         -5.4019268654        3.6752100029        1.0161174821
 H         -8.5788051167        0.4363382572        2.3216316251
 H         -9.3999801798       -1.8266601386        2.9243086337
 H         -7.8617539267       -3.7245812896        3.0584559830
 H         -5.4487075313       -3.4368765104        2.6012248695
 H         -2.9150346123       -2.3610986381        1.9852903743
 H         -1.0563098768       -0.9199184764        1.2017832946
 H          0.3981523561       -5.8485602997       -1.2948362259
 H         -1.3296260413       -7.6157676086       -1.3473084006
 H         -3.7090408656       -7.0357534330       -1.5328779557
 H         -4.4081620988       -4.6511129190       -1.6747904895
 H         -4.1060962422        2.0568056156       -2.1548978574
 H         -6.2325704493        3.2992221720       -1.9463675817
