  45
 
 O         -3.9758631258        1.2224402996        2.1524277283
 S         -3.5602186136        1.2980029107        0.7615796890
 O         -3.9072708077        2.5086428927        0.0361409092
 C         -4.2307923465       -0.1080041416       -0.1109064774
 C         -4.4774628341       -1.2834791091        0.5830006792
 C         -4.8942900111       -2.4046264440       -0.1098717274
 C         -5.0516191277       -2.3509370050       -1.4889237471
 C         -4.7972190461       -1.1705292716       -2.1758674097
 C         -4.3801022494       -0.0461774930       -1.4884863450
 C         -1.8265042951        1.0300158662        0.6542041421
 C         -1.1931049782        0.1786467061        1.5834567189
 C          0.1149177270       -0.1649584313        1.4197224373
 C          0.8605197477        0.3422860217        0.3143744764
 N          2.1856613972        0.0114190348        0.1546321323
 C          2.7268638353       -1.2497362256        0.3237793793
 C          2.0901852204       -2.4525730811        0.5978966471
 C          2.8709404874       -3.5972970360        0.6930867322
 C          4.2527538659       -3.5408328725        0.5036647024
 C          4.8939068220       -2.3503707109        0.1894829334
 C          4.1335140913       -1.1930576144        0.0800347508
 C          4.4334805692        0.1626467396       -0.2629708213
 C          5.6015173312        0.8356581062       -0.5974479179
 C          5.5391180271        2.2029019835       -0.8291543098
 C          4.3392663418        2.9074297738       -0.7178561816
 C          3.1564679622        2.2556473787       -0.3935629321
 C          3.2005981850        0.8819989958       -0.1978879656
 C          0.2078414381        1.2017290666       -0.6179076697
 C         -1.1088056310        1.5139172983       -0.4593577974
 H         -4.3582794444       -1.2866845681        1.6553500397
 H         -5.0995704127       -3.3207619341        0.4235373702
 H         -5.3759509890       -3.2280027926       -2.0280797911
 H         -4.9268531304       -1.1287900912       -3.2470144767
 H         -4.1861130350        0.8895728149       -1.9893915280
 H         -1.7658508517       -0.1517727601        2.4352648142
 H          0.6272486081       -0.7522945666        2.1660393010
 H          1.0187707254       -2.5065878972        0.7102837686
 H          2.4000296706       -4.5440370031        0.9051029564
 H          4.8314823993       -4.4486750896        0.5865714005
 H          5.9599591846       -2.3244331786        0.0265635368
 H          6.5391323632        0.3068085432       -0.6674367501
 H          6.4408405734        2.7392442918       -1.0844939268
 H          4.3306960540        3.9745407655       -0.8738511087
 H          2.2388418560        2.8099171824       -0.2747579914
 H          0.7504995142        1.5317171164       -1.4901786537
 H         -1.6333737897        2.1413082288       -1.1622813431
