  63
 
 N          2.1226394735        3.6644645717       -0.7375075402
 C          1.6880239474        2.6571327780       -0.4049627532
 C          1.1037881690        1.4155412230       -0.0605230274
 C         -0.2804571249        1.2944934454       -0.1266725111
 C         -0.8901006183        0.0669749936        0.0976887310
 C         -2.3479188073       -0.0516114760        0.0301001169
 N         -3.0460420161        1.0434587312       -0.2476114299
 C         -4.3677676598        0.8907787716       -0.3036204876
 C         -5.1820131963        2.0643705696       -0.6138772925
 C         -6.5700695761        1.9559337221       -0.6803013405
 C         -7.3367069197        3.0662979499       -0.9749076910
 C         -6.7280571597        4.2905537786       -1.2051810926
 C         -5.3478692553        4.4038122889       -1.1404083182
 C         -4.5751104050        3.2975130014       -0.8462895196
 N         -4.9882074648       -0.2663622553       -0.0935359303
 C         -4.2113778110       -1.3090981531        0.1827566609
 C         -4.8517999033       -2.6008286685        0.4255218456
 C         -6.2394236812       -2.7167621818        0.3658307649
 C         -6.8415589083       -3.9381117129        0.5968282443
 C         -6.0678735795       -5.0509831312        0.8883905190
 C         -4.6872093440       -4.9410864361        0.9486639463
 C         -4.0785905986       -3.7227914882        0.7187370747
 N         -2.8828388715       -1.2469166850        0.2519468871
 C         -0.1016188020       -1.0514623119        0.3724839309
 C          1.2693601897       -0.9383721068        0.4491458025
 C          1.8923454071        0.2934542085        0.2554909662
 N          3.2773034393        0.3913983556        0.3445509439
 C          4.0225976351        1.3700488477        0.9983673359
 C          3.5913867405        2.3959549630        1.8230350947
 C          4.5506931951        3.2146649259        2.3866606095
 C          5.9082861835        3.0087388792        2.1527490193
 C          6.3478233194        1.9615075071        1.3703072496
 C          5.4035402919        1.1215276470        0.7911396889
 C          5.4817636208       -0.0591508037       -0.0118365229
 C          6.4228146039       -0.9204512184       -0.6513141611
 C          7.8144654353       -0.8750297053       -0.6863655277
 C          8.5105330206       -1.8387830075       -1.3854003957
 C          7.8429464431       -2.8578353374       -2.0579030417
 C          6.4623808297       -2.9263307695       -2.0414723712
 C          5.7637553754       -1.9602295028       -1.3417365183
 S          4.0076127948       -1.8797215669       -1.2074847082
 C          4.1783230297       -0.4657791895       -0.2282772758
 H         -0.8885457067        2.1525652273       -0.3676227407
 H         -7.0258990323        0.9954814593       -0.4984561471
 H         -8.4122288870        2.9807671995       -1.0262479777
 H         -7.3300718012        5.1573270733       -1.4356821997
 H         -4.8756304966        5.3583102418       -1.3204886498
 H         -3.5002160686        3.3682038948       -0.7926146187
 H         -6.8249713706       -1.8402072590        0.1377210848
 H         -7.9170528972       -4.0264391128        0.5503359570
 H         -6.5413661996       -6.0049980970        1.0687563406
 H         -4.0865352346       -5.8096273717        1.1757673533
 H         -3.0058780888       -3.6190280624        0.7614120093
 H         -0.5868087189       -2.0008758318        0.5317301558
 H          1.8761396035       -1.8025196727        0.6733582625
 H          2.5442012247        2.5530100527        2.0316725860
 H          4.2400179742        4.0275761467        3.0248426535
 H          6.6271651886        3.6740000239        2.6070360053
 H          7.4014428411        1.7889190138        1.2157065041
 H          8.3341938255       -0.0853370253       -0.1667184662
 H          9.5894558590       -1.8037732526       -1.4127526778
 H          8.4065803514       -3.6023818695       -2.5991979788
 H          5.9362411918       -3.7118972293       -2.5617664310
