46

C     -4.958328   -2.623502    0.162374
C     -3.655517   -3.134244    0.758114
C     -2.542627   -2.085461    0.775233
C     -2.085251   -1.672448   -0.623110
N     -0.960173   -0.746011   -0.576213
C      0.369290   -1.123812   -0.588192
C      0.971062   -2.391408   -0.634117
C      2.368716   -2.462740   -0.626895
C      3.152162   -1.309162   -0.559637
C      4.620388   -1.372628   -0.560881
C      5.393070   -2.009131    0.342519
C      6.808794   -1.959325    0.195786
N      7.959138   -1.907077    0.052491
C      4.857820   -2.725154    1.451075
N      4.428697   -3.327118    2.345875
C      2.534260   -0.050177   -0.528710
C      1.124920    0.047497   -0.538003
C      0.214742    1.149656   -0.498071
C      0.387532    2.551230   -0.443857
C     -0.732037    3.394961   -0.389211
C     -0.591289    4.857713   -0.353538
C      0.074442    5.577130    0.572443
C      0.097675    6.996445    0.456644
N      0.102684    8.150904    0.339832
C      0.748008    4.983192    1.677404
N      1.313662    4.505810    2.571305
C     -2.014595    2.843821   -0.415079
C     -2.211178    1.459606   -0.473974
C     -1.079512    0.630016   -0.516201
H     -4.851973   -2.399609   -0.903035
H     -5.740714   -3.382414    0.264500
H     -5.296382   -1.717368    0.674949
H     -3.324201   -4.021335    0.205912
H     -3.846246   -3.455477    1.789049
H     -2.875893   -1.203811    1.336820
H     -1.690021   -2.497192    1.330159
H     -2.889366   -1.184435   -1.183102
H     -1.779311   -2.544412   -1.211286
H      0.380994   -3.302000   -0.670526
H      2.830319   -3.447514   -0.674276
H      5.084678   -0.816296   -1.375801
H      3.127696    0.859073   -0.483094
H      1.395893    2.955106   -0.446349
H     -1.112768    5.369100   -1.163542
H     -2.891934    3.488013   -0.382908
H     -3.217322    1.051987   -0.482875
