  50
 
 C          6.1230402567        2.6029818751        1.0263838188
 C          4.9510518799        2.6647194054        1.7885254816
 C          3.8976928561        1.8364107731        1.4707850044
 C          4.0299488406        0.9624014986        0.3820360473
 N          3.0106879315        0.0988884285        0.0247338270
 C          1.6486883856        0.3218249704        0.1061088428
 C          0.9405645985        1.4645997864        0.4221488274
 C         -0.4494880037        1.4234584719        0.3981302257
 C         -1.1287264528        0.2303987335        0.0670119890
 N         -2.5221029926        0.2166730431        0.0706712568
 C         -3.3141386064       -0.7633589564        0.6385062151
 C         -2.9444706558       -1.8832062648        1.3721812379
 C         -3.9523164370       -2.6939503827        1.8649284679
 C         -5.2947800656       -2.3956858263        1.6485138371
 C         -5.6703507307       -1.2619309747        0.9468220049
 C         -4.6774578651       -0.4376917527        0.4409842378
 C         -4.6983443300        0.7999245646       -0.2956734409
 C         -5.7190521836        1.5906693198       -0.7993825427
 C         -5.3831283559        2.7317752856       -1.5092332258
 C         -4.0518474234        3.0690829548       -1.7364028379
 C         -3.0167002398        2.2926594254       -1.2450241387
 C         -3.3465173601        1.1669689166       -0.5012532715
 C         -0.4350766631       -0.9192534760       -0.2857917041
 C          0.9636561973       -0.8780255625       -0.3093361083
 C          1.9483942510       -1.8106604576       -0.6775481775
 N          1.8533837979       -3.0698448687       -1.1411031347
 C          2.9763828032       -3.7276338531       -1.3761290914
 C          4.2396324643       -3.1865400425       -1.2320216418
 C          4.3766264701       -1.8658847047       -0.7458057389
 C          3.2218912135       -1.1879152082       -0.4690960076
 N          5.1720226811        0.8796136537       -0.3183526708
 C          6.1755603944        1.6743711383        0.0038333781
 H          6.9626669579        3.2447512754        1.2365700510
 H          4.8790604338        3.3394775108        2.6283877493
 H          3.0064059264        1.8106521667        2.0765949104
 H          1.4353202229        2.3887304821        0.6750450199
 H         -1.0164502370        2.2929382811        0.6860008310
 H         -1.9071416280       -2.1117991953        1.5608634244
 H         -3.6897256676       -3.5741519848        2.4324286544
 H         -6.0531173693       -3.0534117398        2.0462740608
 H         -6.7120079675       -1.0213325085        0.7997706756
 H         -6.7518138427        1.3181042384       -0.6456270573
 H         -6.1637959722        3.3631741419       -1.9064657638
 H         -3.8200726952        3.9520878428       -2.3130067207
 H         -1.9883669987        2.5474694375       -1.4479619982
 H         -0.9528849869       -1.8083089911       -0.6071160096
 H          2.8492200316       -4.7485472230       -1.7135965429
 H          5.1116259125       -3.7743135489       -1.4669352443
 H          5.3469323536       -1.4232165565       -0.5819494207
 H          7.0628920978        1.5573056726       -0.6057359056
