  72
 
 C         -7.1701771104        0.1220017175        1.2165262944
 C         -6.2835683583       -0.0104374852       -0.0352916995
 C         -7.1568277101       -0.1350821699       -1.2972331548
 C         -5.4410275905       -1.2638272609        0.1019353754
 C         -6.0700683566       -2.4946411562        0.2340145906
 C         -5.3600723777       -3.6691221655        0.3970202245
 C         -3.9790344393       -3.6201675035        0.4508825724
 C         -3.3287330920       -2.4112920081        0.3211713200
 C         -4.0432245219       -1.2258316801        0.1232501947
 N         -3.3618017297       -0.0231162316       -0.0152179575
 C         -1.9471361504       -0.0275464079        0.0000951062
 C         -1.2364638864       -0.5723344615       -1.0648498768
 C          0.1431393243       -0.5829614912       -1.0460833862
 C          0.8343023502       -0.0321296836        0.0298723172
 C          2.3033174594       -0.0241444864        0.0476225896
 C          3.0381014984       -1.2063929427       -0.1166965069
 C          2.3488227734       -2.4242205596       -0.3018296242
 N          1.7642577213       -3.3990466021       -0.4588987312
 C          4.4471369976       -1.1338178019       -0.1251439535
 C          5.3010901962       -2.3132796114       -0.3028022085
 C          5.0000032780       -3.5366892056        0.2903846654
 C          5.8375718884       -4.6209396729        0.1044097891
 C          6.9780190860       -4.4984413131       -0.6716369257
 C          7.2922598774       -3.2789774005       -1.2502304384
 C          6.4646653735       -2.1901092560       -1.0609218794
 N          5.0789148588        0.0205077194        0.0145930268
 C          4.4155012284        1.1495931867        0.2092566551
 C          5.2319584380        2.3535132916        0.3885770299
 C          4.8557114310        3.3741959720        1.2586699938
 C          5.6573402191        4.4909748752        1.4046249825
 C          6.8377162337        4.6023146916        0.6887756242
 C          7.2270981743        3.5821148423       -0.1647043121
 C          6.4346207374        2.4609056948       -0.3090974826
 C          3.0051754977        1.1765800873        0.2226881124
 C          2.2793197283        2.3863613249        0.2760250609
 N          1.6661024027        3.3561602426        0.2671836327
 C          0.1211348858        0.5215563238        1.0903505623
 C         -1.2582881817        0.5149750783        1.0805177480
 C         -4.0309747916        1.1853286412       -0.1654370373
 C         -3.3034047090        2.3639935972       -0.3562130137
 C         -3.9413739391        3.5782982758       -0.4961372535
 C         -5.3225227664        3.6395032088       -0.4596616640
 C         -6.0449569709        2.4715870861       -0.3044244067
 C         -5.4284755065        1.2354537568       -0.1627723356
 H         -7.8138518570       -0.7457632671        1.3307194471
 H         -7.7987933221        1.0060392621        1.1553667471
 H         -6.5459055455        0.2052433740        2.1043122728
 H         -7.7916662559        0.7381820567       -1.4186270081
 H         -6.5230542349       -0.2235086283       -2.1777383615
 H         -7.7937587007       -1.0136350449       -1.2436476197
 H         -7.1483006437       -2.5436041886        0.2122923384
 H         -5.8812336044       -4.6094671309        0.4922083934
 H         -3.4024655843       -4.5211068544        0.5971214575
 H         -2.2516426297       -2.3864403020        0.3797736703
 H         -1.7733369545       -0.9887984500       -1.9036382382
 H          0.6881231279       -0.9956839229       -1.8821519414
 H          4.1276619598       -3.6374715587        0.9180433750
 H          5.5980938045       -5.5650104063        0.5700834778
 H          7.6251749010       -5.3501385040       -0.8192005421
 H          8.1856510752       -3.1779776973       -1.8484539985
 H          6.6991044666       -1.2347379976       -1.5044292703
 H          3.9509824529        3.2878344522        1.8412428453
 H          5.3589078255        5.2764635407        2.0824558955
 H          7.4570743350        5.4796122667        0.8015089175
 H          8.1515379732        3.6622147946       -0.7171427027
 H          6.7268722416        1.6584389572       -0.9684005095
 H          0.6496825792        0.9352766044        1.9368125773
 H         -1.8121230166        0.9348651595        1.9065246273
 H         -2.2259520034        2.3298551555       -0.4019979683
 H         -3.3548890059        4.4736350304       -0.6369409793
 H         -5.8341311989        4.5842648735       -0.5627288520
 H         -7.1229136558        2.5300453688       -0.2965306708
