  52
 
 C         -5.2927399006       -2.0721124757        0.6027561638
 C         -3.9449235600       -1.4343828869        0.4444469494
 C         -2.9130330758       -1.7200162393        1.3284254294
 C         -1.6545484406       -1.1591415945        1.1830205054
 C         -0.5917176837       -1.4923781846        2.1896266065
 C         -1.3885105085       -0.2649005301        0.1301664462
 B          0.0125970582        0.4338840718       -0.0006269928
 C          0.0636252733        1.9998699115       -0.0137487626
 C         -0.9400049202        2.7671430388        0.5889671651
 C         -0.8929048872        4.1485397043        0.5869923745
 C          0.1549261199        4.8065215531       -0.0373755287
 C          1.1576712753        4.0714849215       -0.6496689311
 C          1.1147892704        2.6900711398       -0.6285117555
 C          1.3658331067       -0.3554223417       -0.1210326512
 C          2.4239976412       -0.1299507626        0.7717567828
 C          2.2870601997        0.7884827899        1.9544418873
 C          3.6363531304       -0.7884124408        0.6123554110
 C          3.8482589204       -1.6768666120       -0.4285051057
 C          5.1573880319       -2.3909435302       -0.5860167781
 C          2.7997752551       -1.9078633857       -1.3089750730
 C          1.5764271532       -1.2734410724       -1.1661704662
 C          0.4944354406       -1.5533945044       -2.1686750396
 C         -2.4313281999        0.0184565887       -0.7641452149
 C         -2.2414183500        0.9270926342       -1.9472250659
 C         -3.6807657029       -0.5651822072       -0.6009285760
 H         -5.2982813199       -3.0547116439        0.1281828613
 H         -6.0661178465       -1.4668868325        0.1346139335
 H         -5.5367514554       -2.2074114180        1.6546913721
 H         -3.0975029605       -2.3992427086        2.1503655252
 H         -0.9281385245       -2.2827667457        2.8573093041
 H          0.3192982777       -1.8159019861        1.6917346254
 H         -0.3487992314       -0.6166509021        2.7900564103
 H         -1.7643589884        2.2621733726        1.0737177296
 H         -1.6772220199        4.7173376326        1.0673666479
 H          0.1899457801        5.8869368674       -0.0462088741
 H          1.9771371563        4.5799868804       -1.1389020602
 H          1.9052105919        2.1247443163       -1.1029920653
 H          2.5001435027        0.2441740291        2.8745662595
 H          1.2896441251        1.2102506397        2.0215228107
 H          3.0046647455        1.6056525775        1.8798732295
 H          4.4324653707       -0.5988064227        1.3205352723
 H          5.9653449832       -1.8263680848       -0.1254917228
 H          5.1094869877       -3.3685736647       -0.1036815382
 H          5.3891573231       -2.5477257338       -1.6377238071
 H          2.9430703479       -2.6022007470       -2.1265034685
 H         -0.4375888122       -1.8032246254       -1.6673104989
 H          0.7770409496       -2.3783662403       -2.8192240769
 H          0.3134866367       -0.6758410647       -2.7882499877
 H         -2.8390509870        1.8307028250       -1.8240532629
 H         -2.5764010018        0.4304573883       -2.8576396655
 H         -1.2028859737        1.2171995253       -2.0677029796
 H         -4.4642413040       -0.3320748196       -1.3102017541
