64
 xtb: 6.7.1 (edcfbbe)
C           -5.97657865384448       -1.60676554801191        0.03211932453854
C           -5.06306648951396       -0.36632915521453       -0.00060954845754
C           -5.91217017043391        0.91874119701679       -0.02646440855616
C           -4.20791531231103       -0.36153306408434        1.25368421294073
C           -4.81923181089601       -0.31069526483787        2.49942914373465
C           -4.09281738403299       -0.31316856344407        3.67670251250459
C           -2.71198128884612       -0.37184198661111        3.61893486733491
C           -2.07806562169492       -0.42205458468814        2.39450223192679
C           -2.81078890952552       -0.41453466514503        1.20380509319631
N           -2.14410181813335       -0.46419199657399       -0.01192907058071
C           -0.72221011878692       -0.51230826369099       -0.01630928372535
C           -0.06479655637510       -1.74354149081144       -0.04074759331507
C            1.30943328016542       -1.77134741997217       -0.04160669335048
C            2.05198264702524       -0.58627116804664       -0.01960425585467
C            1.39921003315111        0.66283503987011        0.00075978641732
C            0.00086324181211        0.66660998858514        0.00327484252729
C            2.18189652865874        1.89252617274626        0.01759041105643
C            1.58592403447690        3.15587862265740        0.02532126961663
C            2.35633014297117        4.31159511401039        0.04068906134024
C            1.71734802748507        5.57238665183033        0.04647400749265
N            1.19795653178986        6.59577539521154        0.05497755525436
C            3.75584145672089        4.23902345873187        0.04979641550606
C            4.35502140434472        3.00422187999464        0.04145427941118
C            3.59117301462211        1.83120626068629        0.02449897996229
C            4.26398811437213        0.54974527367019        0.01129674408665
N            5.58407135975631        0.52193311376788        0.02352278596694
C            6.19089492634116       -0.67330965636000        0.00493292329160
C            7.60098228760378       -0.74928946020167        0.01734437827445
C            8.21331223928668       -1.96969570846063       -0.00070463399449
C            7.45708550848725       -3.15912162183279       -0.03251592212410
C            6.09200642934197       -3.12297808275820       -0.04526414108243
C            5.42409682133414       -1.87882022263562       -0.02598112017246
N            4.08408097284673       -1.83722628185675       -0.03777737425553
C            3.49736353609041       -0.65418636163070       -0.01544915402676
C           -2.82124209704937       -0.46635756289702       -1.22110461038752
C           -2.09806111548181       -0.51220476549076       -2.41674158530428
C           -2.74238717129696       -0.51579767973585       -3.63676017594392
C           -4.12412806234522       -0.47117747421814       -3.68499303206304
C           -4.84078558801649       -0.42301883409539       -2.50272399892632
C           -4.21885034015847       -0.41884686857309       -1.26120408171328
H           -6.61206329053549       -1.61282275551088        0.89062421552901
H           -5.37286583340592       -2.51298745335232        0.01506896240880
H           -6.61380523881756       -1.62501983485223       -0.87047500745913
H           -6.54671401347506        0.96939276905366        0.87270007714576
H           -6.54840434769669        0.95804862506013       -0.88748214145114
H           -5.26359935725380        1.79334267536255       -0.01398868121715
H           -5.90412784718144       -0.31107191817228        2.55848282379819
H           -4.61574438494968       -0.34370823652393        4.63008808034320
H           -2.13785782432549       -0.44043413950607        4.53335311701000
H           -1.00713769640063       -0.49695102271016        2.36715529093286
H           -0.64122355466446       -2.65608479554685       -0.01663066876914
H            1.84972046840026       -2.70476915832998       -0.01659589654756
H           -0.55305725275217        1.59149088160957        0.00642178535261
H            0.51320604229431        3.26325783586468        0.00523712565631
H            4.34192907861600        5.14538861320996        0.01792632309866
H            5.42903073441157        2.90564220765133        0.01346798123770
H            8.16112684293043        0.17308900965126        0.01181616474681
H            9.29119220180274       -2.03379262157956        0.00255366036800
H            7.97308647046167       -4.10771988510686       -0.01336483557708
H            5.49479948924667       -4.02178693739415       -0.01982642043001
H           -1.01268698162703       -0.51896915591094       -2.37563703408683
H           -2.14878232959646       -0.49112371944898       -4.53964394075848
H           -4.62715600775259       -0.40232067677199       -4.63144417965638
H           -5.91054973921842       -0.34594858588077       -2.55727798387903
