  93
 
 C         -8.1977516001       -4.6034633513       -0.2242874133
 C         -8.4947356322       -3.2815276855       -0.5128529146
 C         -7.5182996402       -2.3081630965       -0.4164631237
 C         -6.2265630033       -2.6476456815       -0.0187076280
 C         -5.1652742326       -1.6585819240        0.0906940664
 N         -3.8634518908       -2.0284399719       -0.0620280925
 C         -3.1355067348       -0.9455945233        0.0379567301
 C         -1.6813444572       -0.8893288446       -0.0078581184
 C         -1.0013428443       -0.0903551777        0.8857795082
 C          0.3907924020       -0.0128038160        0.8668652081
 C          1.1343792040       -0.7348119711       -0.0369837067
 C          2.6033451821       -0.6501992941        0.0158273509
 C          3.2403615432        0.5841275992       -0.0798232637
 C          4.6144399240        0.6815439347       -0.0062647398
 C          5.3939018553       -0.4609615937        0.1742597637
 N          6.7878672779       -0.3672109809        0.2472921935
 C          7.4702673450        0.5387198984       -0.5714411534
 C          8.5957660596        1.2133549355       -0.0982912803
 C          9.2692392709        2.1014233235       -0.9139847123
 C          8.8308898127        2.3396408526       -2.2063498937
 C          7.7101568947        1.6769571062       -2.6793429177
 C          7.0347741600        0.7805964353       -1.8744564478
 C          7.4960286713       -1.1814101586        1.1382519696
 C          8.7405131133       -1.7031954449        0.7857303585
 C          9.4371763339       -2.5008463898        1.6723493739
 C          8.9053793964       -2.7991946086        2.9162175264
 C          7.6669560017       -2.2885676372        3.2689817204
 C          6.9663194767       -1.4829021577        2.3928819675
 C          4.7587669634       -1.6983165307        0.2843947792
 C          3.3847150199       -1.7879893548        0.2063889888
 C          0.4691578740       -1.5578659037       -0.9854758485
 C          1.1774549815       -2.2638036445       -1.9820498972
 C          0.5262101634       -3.0572679453       -2.8838453717
 C         -0.8691534376       -3.1778340519       -2.8361115701
 C         -1.5891607932       -2.4837750350       -1.9045153611
 C         -0.9491573638       -1.6528002313       -0.9614633489
 N         -3.9276894776        0.1548850819        0.2577224729
 C         -3.5082883658        1.4887909093        0.3952651235
 C         -3.9237929534        2.2476924235        1.4854168337
 C         -3.4834736928        3.5479231917        1.6215179790
 C         -2.6300622233        4.1088614469        0.6799748282
 C         -2.2430759743        3.3571484551       -0.4356032679
 C         -2.6819220776        2.0483651926       -0.5691759521
 O         -1.4450612925        3.8740416563       -1.4203591736
 C         -1.3276909110        5.2790246409       -1.3667185209
 C         -1.0842654001        5.7324250461        0.0716484459
 O         -2.1868610414        5.3900155301        0.8816476915
 C         -5.2306314784       -0.2912870806        0.3013883314
 C         -6.3621664284        0.5962086960        0.5332112332
 C         -7.3177595085        0.2681263491        1.4943776759
 C         -8.3907342984        1.1066757500        1.7260038485
 C         -8.5242780605        2.2835209161        1.0065890797
 C         -7.5812160510        2.6146151342        0.0482792741
 C         -6.5060619675        1.7790317465       -0.1896224042
 C         -5.9307326819       -3.9834198658        0.2511981463
 C         -6.9103363886       -4.9517120119        0.1511946256
 H         -8.9654307732       -5.3598938601       -0.2995656859
 H         -9.4937129944       -3.0074028837       -0.8208400049
 H         -7.7542602764       -1.2836179388       -0.6627912775
 H         -1.5428440784        0.4678354965        1.6356216524
 H          0.8941543206        0.6059495020        1.5961512947
 H          2.6465846739        1.4754445480       -0.2231935999
 H          5.0960575467        1.6454291365       -0.0846905824
 H          8.9345073727        1.0372831390        0.9122413428
 H         10.1386526916        2.6177791926       -0.5341017447
 H          9.3587477273        3.0361431937       -2.8399315000
 H          7.3635756803        1.8519221866       -3.6873897799
 H          6.1673525925        0.2577218822       -2.2500772145
 H          9.1533099387       -1.4807713046       -0.1874454811
 H         10.3992591798       -2.8996397522        1.3857764246
 H          9.4517521033       -3.4251980166        3.6052002890
 H          7.2459620593       -2.5119015689        4.2383460129
 H          6.0051481991       -1.0782469990        2.6745620007
 H          5.3527572826       -2.5888723799        0.4292375266
 H          2.9046098956       -2.7508661511        0.3040795797
 H          2.2510309755       -2.1582135190       -2.0305536485
 H          1.0835535177       -3.5906401572       -3.6403534162
 H         -1.3739238463       -3.8134177730       -3.5487872402
 H         -2.6628289019       -2.5735211190       -1.8650770988
 H         -4.5753860387        1.8143271750        2.2276627865
 H         -3.7806147789        4.1503623171        2.4643848421
 H         -2.3666573626        1.4803583861       -1.4299427513
 H         -0.4918130018        5.5447443946       -2.0150930692
 H         -2.2489337203        5.7459989124       -1.7412807828
 H         -0.1746713361        5.2486282913        0.4534653117
 H         -0.9779017882        6.8161432917        0.1347323820
 H         -7.2087535862       -0.6489763474        2.0547081639
 H         -9.1247326394        0.8434719034        2.4734439059
 H         -9.3626759416        2.9388062643        1.1906276612
 H         -7.6847586721        3.5275505220       -0.5198509840
 H         -5.7805996826        2.0353403384       -0.9483124849
 H         -4.9221485279       -4.2392067484        0.5370699911
 H         -6.6713858336       -5.9832948415        0.3667372062
