  105
 
 C         -9.2836804754        1.0987460790        4.4812930642
 C         -8.4157534908        0.9827396156        3.2644467451
 C         -7.0357149656        1.1200061836        3.3512780636
 C         -6.2321308819        0.9998804461        2.2347900451
 C         -6.7917796226        0.7258379152        0.9869848002
 N         -5.9661228871        0.5867453020       -0.1307199288
 C         -6.3845553628        0.9394689179       -1.4157203741
 C         -5.8830024600        0.2540655127       -2.5219754324
 C         -6.2688316260        0.6084902735       -3.7996810676
 C         -7.1688768792        1.6437833609       -4.0195869765
 C         -7.5731575171        2.0386482000       -5.4081565957
 C         -7.6654892139        2.3243955360       -2.9129841308
 C         -7.2802806614        1.9880890007       -1.6310895002
 C         -4.6613450233        0.0773052726        0.0441211287
 C         -4.4818752807       -1.2160659241        0.5681711378
 C         -5.5766288807       -2.0606767126        0.8854829274
 C         -5.3837134486       -3.3130523850        1.3838727553
 C         -4.0796372051       -3.8022823961        1.5928587985
 C         -3.0017263101       -3.0335463473        1.2772272135
 C         -3.1578355712       -1.7228524439        0.7532970228
 C         -2.0521870634       -0.9441955206        0.3838578101
 C         -0.6831132690       -1.4782658157        0.5582331296
 C         -0.1159994773       -1.5682384073        1.8272380590
 C          1.1684997356       -2.0527144777        1.9826691169
 C          1.9026571866       -2.4565062115        0.8749585566
 P          3.6033627627       -3.0331217694        1.1750171855
 O          3.7943080114       -3.6029254774        2.5222955398
 C          3.9735921666       -4.2182441462       -0.1591372111
 C          4.4204537362       -3.8320629099       -1.4162409218
 C          4.6651817418       -4.7933163459       -2.3813232244
 C          4.4642578841       -6.1347099231       -2.0957280257
 C          4.0241062899       -6.5210800251       -0.8395329938
 C          3.7792027684       -5.5629198826        0.1278566344
 C          4.6642028228       -1.5846915672        0.8639225432
 C          5.8631966711       -1.5187884776        1.5623932274
 C          6.7211060922       -0.4525643945        1.3815231374
 C          6.3866887399        0.5634712402        0.4869870420
 N          7.2486979885        1.6489434324        0.2989585529
 C          8.6054824373        1.5717640339        0.0421472952
 C          9.4065767500        0.4556051073       -0.1531076676
 C         10.7448446972        0.6618471021       -0.4310532224
 C         11.2795757990        1.9452350750       -0.5227728234
 C         10.4819210230        3.0599580456       -0.3550902496
 C          9.1334392524        2.8779019285       -0.0757689825
 C          8.0365000219        3.7830159227        0.1305966459
 C          7.9338158044        5.1680796217        0.1572182275
 C          6.7021431550        5.7355994722        0.4177391704
 C          5.5854123901        4.9401476066        0.6653895759
 C          5.6626374978        3.5601897022        0.6429302219
 C          6.8921607313        2.9842657119        0.3560853258
 C          5.1833172174        0.4960085114       -0.2142825969
 C          4.3262907022       -0.5696499001       -0.0228719817
 C          1.3388624264       -2.3836787638       -0.3928099539
 C          0.0551611930       -1.8956289231       -0.5469839754
 C         -2.2330280678        0.3401213246       -0.1490878626
 C         -1.1293023822        1.1603787519       -0.5036143382
 C         -1.3086931968        2.4239272862       -0.9765685434
 C         -2.6074880973        2.9530343358       -1.1060722437
 C         -3.6929011058        2.1981901218       -0.7803870681
 C         -3.5520417180        0.8680035210       -0.3077200759
 C         -8.1759982588        0.5724138221        0.8961636323
 C         -8.9680861292        0.7060360849        2.0185522267
 H         -8.8144175039        1.7284886917        5.2337970120
 H         -9.4461069213        0.1127779641        4.9195997337
 H        -10.2553267372        1.5163208817        4.2260679105
 H         -6.5800985418        1.3340037984        4.3079745064
 H         -5.1617030702        1.1187125136        2.3222524604
 H         -5.1881574565       -0.5596969513       -2.3720689147
 H         -5.8678026987        0.0620364404       -4.6417993952
 H         -7.4441394109        1.2096632290       -6.1002786361
 H         -6.9558582847        2.8687235559       -5.7551797414
 H         -8.6120476025        2.3613169806       -5.4322951165
 H         -8.3594658834        3.1406374196       -3.0576500194
 H         -7.6630010058        2.5461942022       -0.7886069388
 H         -6.5795377821       -1.7008240786        0.7172367176
 H         -6.2305463620       -3.9422210773        1.6156603207
 H         -3.9430080587       -4.7965502386        1.9926447909
 H         -2.0013680958       -3.4154315667        1.4181724955
 H         -0.6867040819       -1.2511409277        2.6883016831
 H          1.6197265199       -2.1322433577        2.9623389928
 H          4.5850108787       -2.7860687398       -1.6325241636
 H          5.0152412947       -4.4950363873       -3.3588401762
 H          4.6567849236       -6.8810594684       -2.8523069808
 H          3.8728071441       -7.5666425786       -0.6144781570
 H          3.4463582101       -5.8393904732        1.1191352605
 H          6.0998290370       -2.3077468440        2.2627218692
 H          7.6420920437       -0.3900031798        1.9414950305
 H          9.0002243276       -0.5432330832       -0.0999740826
 H         11.3896600827       -0.1914704357       -0.5832704600
 H         12.3311963594        2.0651230566       -0.7381353412
 H         10.8931325700        4.0544273199       -0.4430149565
 H          8.8029726155        5.7845048642       -0.0169869590
 H          6.6005279012        6.8106945096        0.4414097303
 H          4.6384294856        5.4118534689        0.8840959271
 H          4.7946744261        2.9545198298        0.8558522198
 H          4.9324880355        1.2766955990       -0.9167490998
 H          3.3918958161       -0.6143314011       -0.5630268164
 H          1.9015681583       -2.7158846541       -1.2536439542
 H         -0.3875637412       -1.8368057161       -1.5310285190
 H         -0.1334896748        0.7613323810       -0.3814803615
 H         -0.4580343641        3.0348009106       -1.2416632710
 H         -2.7360868176        3.9659082211       -1.4585552830
 H         -4.6824090581        2.6179780146       -0.8704138434
 H         -8.6263047039        0.3357674698       -0.0572179396
 H        -10.0381201401        0.5827426071        1.9259478755
