  110
 
 N          2.1083647599       10.1711738586        2.9389382342
 C          1.5418897570        9.2208229001        2.6422739530
 C          0.8074233343        8.0636817169        2.2800136878
 N          1.4677515495        6.9596223385        1.9747350479
 C          0.7685321858        5.8781474100        1.6347415066
 C          1.4696140663        4.6697041976        1.2995704336
 C          2.8679492421        4.6240487585        1.3721676119
 C          3.5535912820        3.4734047829        1.0774896718
 C          2.8471606210        2.3329072941        0.6725701026
 N          3.5142733227        1.1475927561        0.3753420232
 C          3.1279808261       -0.1186082112        0.7856671418
 C          2.1034760914       -0.5075836370        1.6368035981
 C          1.9623381231       -1.8528579807        1.9118034756
 C          2.8147891355       -2.8190951695        1.3642007090
 C          2.6213417384       -4.2428926393        1.6789744093
 C          2.3198969797       -4.6526840834        2.9757435984
 C          2.1635025553       -5.9938292454        3.2718018541
 C          2.2971323194       -6.9474649363        2.2757989156
 C          2.5858186231       -6.5505673419        0.9804792611
 C          2.7490175120       -5.2102022380        0.6846663149
 C          3.8594681070       -2.4207296140        0.5391414003
 C          4.0246949981       -1.0741157311        0.2584384068
 C          4.9970826352       -0.3439910166       -0.5098263955
 C          6.0923067420       -0.7342627148       -1.2633137613
 C          6.8403620889        0.2326868322       -1.9231207107
 C          8.0175404989       -0.1488712459       -2.7177764669
 C          7.9897565956       -1.2781128759       -3.5328649504
 C          9.0967467262       -1.6349578489       -4.2798498302
 C         10.2516574537       -0.8731065175       -4.2217104254
 C         10.2916331698        0.2500612579       -3.4126938644
 C          9.1839143435        0.6111165107       -2.6687990091
 C          6.4584839831        1.5777442578       -1.8383882582
 C          5.3665217747        1.9865300126       -1.0995655292
 C          4.6480431285        1.0208862387       -0.4103224330
 C          1.4640201020        2.3769874716        0.5787495614
 C          0.7439405292        3.5249980640        0.9069110613
 C         -0.7094097291        3.5590548486        0.8823494057
 C         -1.4698198203        2.4428319475        0.5386513829
 C         -2.8560906182        2.4594011867        0.5915542494
 N         -3.5580414009        1.2936244299        0.3002233011
 C         -4.6682619948        1.1785384131       -0.5198941279
 C         -5.3454067377        2.1477281849       -1.2448710128
 C         -6.4163739154        1.7483307851       -2.0190670321
 C         -6.8171842488        0.4088583970       -2.1033227655
 C         -7.9652862171        0.0348870012       -2.9428559713
 C         -9.1209333854        0.8124278719       -2.9552913733
 C        -10.2000937780        0.4575638980       -3.7429416856
 C        -10.1415649549       -0.6768215393       -4.5350037111
 C         -8.9969141763       -1.4561936389       -4.5322175429
 C         -7.9186884609       -1.1054958562       -3.7415834648
 C         -6.1125144179       -0.5619789023       -1.4026083230
 C         -5.0389544941       -0.1813428525       -0.6141971935
 C         -4.1070281941       -0.9200322439        0.1951630641
 C         -3.9712526857       -2.2666925338        0.4931626330
 C         -2.9437458241       -2.6743826810        1.3343696236
 C         -2.7523905423       -4.0981680283        1.6486104791
 C         -1.4754245489       -4.6545774852        1.6693899419
 C         -1.2970874346       -5.9942566718        1.9597648429
 C         -2.3896406433       -6.7967851956        2.2421866550
 C         -3.6635157635       -6.2536290491        2.2267205810
 C         -3.8444408484       -4.9161073199        1.9287661457
 C         -2.0918005472       -1.7166978285        1.8977603996
 C         -2.2161381740       -0.3705337006        1.6220631423
 C         -3.2096555115        0.0251917785        0.7378174672
 C         -3.5237471097        3.6358369491        0.9567388117
 C         -2.7962418824        4.7573737229        1.2639678734
 C         -1.3954599917        4.7380750637        1.2441193179
 C         -0.6516087704        5.9128740329        1.6046365924
 N         -1.3108193026        7.0285479530        1.9130807344
 C         -0.6107587745        8.0991512943        2.2472483273
 C         -1.3021330924        9.2928020713        2.5742636245
 N         -1.8330986411       10.2713620345        2.8436873956
 H          3.3884157246        5.5149993320        1.6866598250
 H          4.6265949542        3.4306966187        1.1791856056
 H          1.4415993707        0.2136118013        2.0919406218
 H          1.1617404576       -2.1729118320        2.5617425418
 H          2.2324294609       -3.9162136099        3.7613827653
 H          1.9365133592       -6.2974547754        4.2834455816
 H          2.1744534382       -7.9953622146        2.5078082575
 H          2.6824502750       -7.2891801956        0.1979039921
 H          2.9606066691       -4.9048820052       -0.3299713031
 H          4.5530603707       -3.1478793021        0.1450824438
 H          6.3696847968       -1.7757935783       -1.3209636602
 H          7.0857758442       -1.8665500421       -3.5961799638
 H          9.0582498761       -2.5099685605       -4.9125189857
 H         11.1166649052       -1.1533003050       -4.8044118766
 H         11.1912138410        0.8460972289       -3.3599500852
 H          9.2273518722        1.4788407615       -2.0264393374
 H          7.0230083029        2.3145705760       -2.3900930305
 H          5.0785589667        3.0265162135       -1.0796779850
 H          0.9583934668        1.4935799173        0.2259572361
 H         -0.9937814395        1.5344371920        0.2091891282
 H         -5.0406854516        3.1829411066       -1.2264224289
 H         -6.9470794755        2.4877515716       -2.6001135278
 H         -9.1794183717        1.6893478877       -2.3267569434
 H        -11.0919709108        1.0673402461       -3.7378540224
 H        -10.9841438279       -0.9521206083       -5.1519143434
 H         -8.9436592343       -2.3400852347       -5.1513415949
 H         -7.0217602044       -1.7077730173       -3.7574114243
 H         -6.4051560569       -1.5994081890       -1.4585372862
 H         -4.6451743483       -2.9907127867        0.0611887558
 H         -0.6177199456       -4.0408336878        1.4334122233
 H         -0.3009146131       -6.4107625011        1.9640409635
 H         -2.2488884367       -7.8424266401        2.4729328720
 H         -4.5191569454       -6.8746082194        2.4496284214
 H         -4.8386337713       -4.4928120285        1.9332266240
 H         -1.3312241931       -2.0437528387        2.5904707746
 H         -1.5675400962        0.3471826197        2.1014577716
 H         -4.6004095624        3.6433968720        1.0212460852
 H         -3.2859443361        5.6745302783        1.5514281743
