  66
 
 C          1.1099340486       -3.9187587335        2.7729430196
 C          0.3143518353       -2.8275146589        3.0895760052
 C          0.3864488351       -1.6767290546        2.3292019333
 C          1.2790676343       -1.5976706799        1.2606768967
 P          1.1700256245       -0.1789348884        0.1563175889
 C          2.8362957205        0.0172929244       -0.5967476705
 C          4.0034959402       -0.2561405448        0.1197891832
 C          5.2289938612        0.0645123770       -0.4283780326
 C          5.3095865813        0.6635408406       -1.6783208172
 C          4.1484415745        0.9546306130       -2.3815094179
 C          2.9175949039        0.6401662193       -1.8420329500
 C          0.9741139292        1.2963836024        1.1633472996
 C          1.6839381142        1.3748368492        2.3685647150
 C          1.7076002046        2.5314094707        3.1068707759
 C          1.0565106944        3.6690416343        2.6159958294
 C          0.4071063355        3.6253566074        1.4047386063
 C          0.3460330216        2.4580835803        0.6299198989
 C         -0.3598259757        2.4549031636       -0.6350755308
 C         -0.4276244601        3.6204398073       -1.4119357385
 C         -1.0768509372        3.6581211406       -2.6234908380
 C         -1.7208831599        2.5157343427       -3.1126383813
 C         -1.6905725029        1.3606040719       -2.3723138681
 C         -0.9808563897        1.2885429866       -1.1666212265
 P         -1.1684426665       -0.1860303755       -0.1568892919
 C         -2.8360143430        0.0016750753        0.5955524793
 C         -4.0013828899       -0.2778928290       -0.1216293806
 C         -5.2288356635        0.0366180910        0.4257166569
 C         -5.3132436096        0.6355054211        1.6754811764
 C         -4.1540315492        0.9325984041        2.3793461199
 C         -2.9212669421        0.6243183728        1.8406759956
 C         -1.2690474263       -1.6073250963       -1.2587524060
 C         -2.0297646837       -2.7238012174       -0.9170453689
 C         -1.9467872603       -3.8734734082       -1.6792184852
 C         -1.0858975052       -3.9305407813       -2.7661076925
 C         -0.2957435413       -2.8357406057       -3.0840443873
 C         -0.3747790202       -1.6837993027       -2.3261027783
 C          2.0451983822       -2.7108403449        0.9202606888
 C          1.9691750881       -3.8593688551        1.6848784611
 H          1.0503088482       -4.8201115582        3.3649894913
 H         -0.3679809785       -2.8785951075        3.9258891427
 H         -0.2325799797       -0.8191494903        2.5633805848
 H          3.9458559639       -0.7167920174        1.0955129636
 H          6.1317661892       -0.1526281716        0.1250755409
 H          6.2734796993        0.9089813295       -2.0985808278
 H          4.2065904193        1.4291179287       -3.3506864108
 H          2.0068376615        0.8734008067       -2.3791482531
 H          2.1915712485        0.4877693344        2.7280686927
 H          2.2237131364        2.5673650412        4.0553172680
 H          1.0648125503        4.5833791570        3.1918536728
 H         -0.1020597059        4.5119634900        1.0541085168
 H          0.0761680154        4.5106598729       -1.0627077663
 H         -1.0904167024        4.5713933419       -3.2009320648
 H         -2.2367869376        2.5469549937       -4.0613703703
 H         -2.1926395959        0.4698460157       -2.7305160926
 H         -3.9407677521       -0.7383122792       -1.0972804299
 H         -6.1301488732       -0.1852045947       -0.1282585280
 H         -6.2786343861        0.8760892401        2.0951122475
 H         -4.2151955508        1.4069001809        3.3484301491
 H         -2.0120550375        0.8622473410        2.3783349236
 H         -2.6828970658       -2.6822773632       -0.0558756717
 H         -2.5475533597       -4.7334448179       -1.4204454656
 H         -1.0207379871       -4.8327859256       -3.3562066172
 H          0.3878687560       -2.8849547763       -3.9194218516
 H          0.2400214035       -0.8234496926       -2.5613206555
 H          2.6970038616       -2.6677410680        0.0581665113
 H          2.5741363389       -4.7166901449        1.4271079890
