69
 xtb: 6.7.1 (edcfbbe)
N          -12.00100139599480       -0.11912761828785       -0.00335427679680
C          -10.85480730414752       -0.09098074958383       -0.00264478758015
C           -9.44174841312446       -0.05695495478857       -0.00153235444118
C           -8.77332347748891        1.16709055428579        0.08534786549792
C           -7.39340093682649        1.19347249465465        0.08672972468247
C           -6.66275494544838        0.00905941840638        0.00023190148882
C           -5.18229058675880        0.04127849582276        0.00083700657495
C           -4.48906549233160        0.03452334614337        1.21714828318081
C           -5.16645134771873        0.00310883880015        2.46453460306786
C           -4.47779251594090       -0.00344007943657        3.63801295846118
C           -3.06800999144728        0.02009334830383        3.63758552777426
C           -2.38086656674818        0.04730214013435        2.46352712428326
C           -3.05991337102498        0.05422145026664        1.21680276226099
C           -2.36571971758528        0.08021152501910        0.00116784278755
C           -0.88495747281872        0.08580203734769        0.00112034596868
C           -0.18129100784474       -1.11534194497741        0.01442922646287
C            1.19855042480485       -1.11929045792958        0.01334207946677
C            1.90007052835509        0.08645056789373        0.00039411255056
C            3.34418111428109        0.10342317041024        0.00001410236440
N            4.09492188032277        1.16740326279327        0.00105581972914
C            5.37716859990302        0.69964690579707        0.00110096334383
C            6.61466223251474        1.40249341230221        0.00377599630104
C            6.66089294717940        2.79986251939715        0.00887764591471
C            7.86836343933956        3.45307800269077        0.01244101897162
C            9.04783935162088        2.71126293324981        0.01091065900091
C            9.01449394929585        1.33623091282724        0.00569044257902
C            7.80186240389550        0.62977416869643        0.00185184716810
C            7.74437974196997       -0.82241476283343       -0.00367282968362
C            8.89347959686054       -1.62652821504114       -0.00793851064004
C            8.81584801668419       -3.00006661090068       -0.01319268602748
C            7.58047449624414       -3.64486035042668       -0.01434275696245
C            6.42986634669554       -2.89741681869896       -0.01034810713712
C            6.49650984451447       -1.49840222870361       -0.00520204919957
C            5.33836893468834       -0.68543425963044       -0.00197491803307
O            4.03982823107822       -1.06497360788837       -0.00077349705686
C            1.19730432668993        1.29256528643881       -0.01208299877948
C           -0.18160324029962        1.28826498660772       -0.01246379354121
C           -3.06013729946814        0.09413629915987       -1.21454623529532
C           -2.38138547216254        0.12615557362436       -2.46103773839007
C           -3.06888519171671        0.14043905660584       -3.63511802604780
C           -4.47875326892385        0.12303779891267       -3.63584532076576
C           -5.16709495410803        0.09056851057350       -2.46261350984000
C           -4.48926982874958        0.07380861182386       -1.21518628053549
C           -7.33652155524414       -1.20869094325469       -0.08709930743454
C           -8.71601013790983       -1.24800585843484       -0.08748464128788
H           -9.34166954728202        2.08597921188317        0.06236272599130
H           -6.86909604873684        2.13824396101545        0.06427619338610
H           -6.24684650411551       -0.00522772990040        2.46460971742198
H           -5.00558245271441       -0.01191948367081        4.58024160811506
H           -2.53986184404475        0.02632343803755        4.57962241394619
H           -1.30083440740633        0.06937522832017        2.45970436984115
H           -0.72724147359054       -2.04753950926750       -0.00732618072747
H            1.74250012944202       -2.05150730421965       -0.00835722392841
H            5.72529388191181        3.33707742609310        0.02978571714267
H            7.90876548509720        4.53184758586052        0.04178697526658
H           10.00018037038144        3.22117764449573        0.03077066872573
H            9.95181233779621        0.80304579540642        0.00843050404709
H            9.87066381660231       -1.17101074463744       -0.01157475567585
H            9.72328787074430       -3.58575586759087       -0.03391829865657
H            7.53291564017297       -4.72325169795523       -0.04389754709391
H            5.45765605704598       -3.36728238244553       -0.03089826784542
H            1.75525972997141        2.21499732595603        0.00959959510932
H           -0.72898628043257        2.21941448598987        0.00929610035879
H           -1.30132754100122        0.13723231076038       -2.45709169523260
H           -2.54084113569844        0.15592905755146       -4.57705205671852
H           -5.00663095438165        0.12171610172115       -4.57813727418644
H           -6.24741486474160        0.06859614819586       -2.46290210317103
H           -6.76791255024118       -2.12746080981989       -0.06361067240013
H           -9.24011298764220       -2.19283468814325       -0.06473038257954
