  84
 
 C          8.4319397693       -0.7670907426       -0.9932524002
 C          7.5934120407        0.1570107230       -0.0901061845
 C          8.5162444638        1.0561476319        0.7541390455
 C          6.7292489468        1.0399770217       -0.9668779757
 C          7.3252601128        1.8928598372       -1.8855196130
 C          6.5809032415        2.7223409832       -2.7041131702
 C          5.1983748146        2.7117664011       -2.6112148742
 C          4.5783412981        1.8749428653       -1.7105232434
 C          5.3299069923        1.0309750519       -0.8824199327
 N          4.6815734892        0.1974871870        0.0066874790
 C          3.2571277089        0.2170131466        0.0523121059
 C          2.6044256274        1.1037237877        0.8983270630
 C          1.2246762167        1.1255492136        0.9362794852
 C          0.4842356472        0.2618195767        0.1337643075
 C         -0.9864543469        0.2825246658        0.1822948437
 C         -1.6860147195       -0.9258642716        0.3398497689
 C         -1.0270658860       -2.1020527678        0.6949736922
 N         -0.4648102606       -3.0603035818        1.0043937834
 C         -3.1236608860       -0.8691225819        0.2613019926
 C         -3.9408255431       -2.0773779171        0.3381929222
 C         -5.0244788672       -2.0800907714        1.1936783645
 C         -5.7910659488       -3.2317669008        1.3801451508
 C         -5.4712351900       -4.3860523371        0.7170602633
 C         -4.4083233208       -4.4129283919       -0.2091870664
 C         -4.1056165260       -5.5789166998       -0.9428790884
 C         -3.1164088308       -5.5788872386       -1.8856580029
 C         -2.4064942649       -4.4013232080       -2.1542728269
 C         -2.6664870567       -3.2584282578       -1.4488212382
 C         -3.6418803407       -3.2375601857       -0.4316075039
 N         -3.7275687916        0.2813393178        0.2387578351
 C         -3.1285759628        1.4762371154        0.1787014567
 C         -3.9217025765        2.6560636793        0.2271633356
 C         -3.3479384398        3.8721712825        0.6595068679
 C         -4.1081055508        5.0027817320        0.8641051938
 C         -5.4734068180        4.9864955785        0.6391388583
 C         -6.1031654481        3.8111712281        0.1833064674
 C         -7.4913621152        3.7833080660       -0.0470642756
 C         -8.1138507257        2.6561604377       -0.5338564695
 C         -7.3594955141        1.5234750834       -0.8145088568
 C         -5.9926014695        1.5281354961       -0.6044448480
 C         -5.3340602926        2.6376271387       -0.0632153581
 C         -1.6783142940        1.4830928871        0.0552010693
 C         -0.9589772607        2.6012735118       -0.3856248621
 N         -0.3117942760        3.4656569229       -0.7887764864
 C          1.1478026458       -0.6295593148       -0.7045750039
 C          2.5274330923       -0.6505803928       -0.7495681019
 C          5.3640953640       -0.6533892722        0.8524795061
 C          4.6460674118       -1.4753642027        1.7308664432
 C          5.3009758243       -2.3290747431        2.5900882153
 C          6.6857503662       -2.3790939388        2.5901113778
 C          7.3968797135       -1.5712444090        1.7218424230
 C          6.7651749760       -0.7017478258        0.8435388548
 H          9.0795708697       -1.4050474064       -0.3987756017
 H          7.7755564288       -1.4009765628       -1.5863210008
 H          9.0530539757       -0.1875464898       -1.6701132634
 H          7.9191440381        1.7066678025        1.3902871322
 H          9.1394655990        1.6772172918        0.1172094132
 H          9.1655579092        0.4585685673        1.3874368210
 H          8.4010173343        1.9156980191       -1.9692232636
 H          7.0767560658        3.3730096169       -3.4077169743
 H          4.6021425562        3.3553851818       -3.2392535063
 H          3.5020809487        1.8716109431       -1.6394756906
 H          3.1815230369        1.7712564954        1.5203138403
 H          0.7180621905        1.8082733687        1.6016266487
 H         -5.2573713391       -1.1803432358        1.7439340449
 H         -6.6233052932       -3.2074908967        2.0681227284
 H         -6.0386086039       -5.2909163604        0.8810481184
 H         -4.6829906582       -6.4722562816       -0.7511991513
 H         -2.8891254908       -6.4765553935       -2.4416224372
 H         -1.6536320362       -4.3994081184       -2.9288145655
 H         -2.1326772057       -2.3516094728       -1.6924932574
 H         -2.2947097146        3.9080882732        0.8858980009
 H         -3.6306764331        5.9057199758        1.2153015755
 H         -6.0670310502        5.8751274746        0.7923790871
 H         -8.0669429997        4.6703730243        0.1764779123
 H         -9.1803939036        2.6537139181       -0.7051249314
 H         -7.8358073672        0.6407775733       -1.2146477387
 H         -5.4195960294        0.6544379431       -0.8738857193
 H          0.5831097040       -1.3007525281       -1.3338845043
 H          3.0450247028       -1.3369508172       -1.4026019247
 H          3.5679642527       -1.4411962278        1.7318491925
 H          4.7301427417       -2.9550947509        3.2582594617
 H          7.2088983335       -3.0435771198        3.2602326426
 H          8.4747314202       -1.6247896094        1.7333134133
