  54
 
 C          5.3319229540        0.8886382701       -0.2516359320
 C          4.5571689359        1.1851928876       -1.3607603116
 C          3.2519194222        0.7418899218       -1.4441061471
 C          2.6917430834       -0.0029467008       -0.4059544868
 N          1.3671624636       -0.4406686504       -0.4817595743
 C          0.4167286621        0.2992030610       -1.2045103409
 C         -0.5148162079       -0.3557388703       -2.0063079256
 C         -1.4791446726        0.3654895134       -2.6841273443
 C         -1.5201990855        1.7447572022       -2.5812949972
 C         -0.5834888246        2.4017328380       -1.7997500978
 C          0.3794364196        1.6895500610       -1.1136290725
 C          0.9911560538       -1.6583065854        0.0943258786
 C          1.8351334303       -2.7661193221        0.0070114291
 C          1.4725790825       -3.9848009589        0.5438761211
 C          0.2488115872       -4.1304500927        1.1776964839
 C         -0.5981207897       -3.0431443742        1.2810314751
 C         -0.2405587933       -1.8065915780        0.7580549530
 N         -1.1321213850       -0.7283024885        0.8896259388
 C         -0.8463011303        0.5006464961        1.4440629624
 C          0.2871289798        0.9143886942        2.1268591545
 C          0.3203840653        2.2151632980        2.5905939718
 C         -0.7516085599        3.0830192925        2.3952968207
 C         -1.8942850930        2.6663637987        1.7417446044
 C         -1.9499095694        1.3648304424        1.2629069714
 C         -2.9456406440        0.6097943740        0.5566931111
 C         -4.2123968365        0.9101277342        0.0749486509
 C         -4.9122172276       -0.0682937147       -0.6020977643
 C         -4.3635333280       -1.3325755977       -0.8050609102
 C         -3.1052019146       -1.6556068100       -0.3356753280
 C         -2.4010618855       -0.6776873956        0.3502922519
 C          3.4796773270       -0.3027662086        0.7060369372
 C          4.7861627452        0.1389683396        0.7769148801
 H          6.3522757572        1.2351902059       -0.1909113416
 H          4.9750512772        1.7598056334       -2.1743565178
 H          2.6585336231        0.9655774042       -2.3182718555
 H         -0.4813850530       -1.4328964110       -2.0888980101
 H         -2.2031893835       -0.1553419872       -3.2926628488
 H         -2.2787471732        2.3049825843       -3.1060639203
 H         -0.6111970561        3.4774393593       -1.7102644471
 H          1.0954727226        2.2009892914       -0.4877421564
 H          2.7791347780       -2.6583450472       -0.5068363869
 H          2.1419668676       -4.8270583257        0.4555802881
 H         -0.0410318236       -5.0826515945        1.5943119360
 H         -1.5473613292       -3.1326982781        1.7885215938
 H          1.1164162475        0.2447564576        2.2933949888
 H          1.1961142559        2.5655927823        3.1171854593
 H         -0.6863535121        4.0937653671        2.7703703761
 H         -2.7303081423        3.3355097763        1.6041138244
 H         -4.6354255010        1.8919717362        0.2252472773
 H         -5.8989489754        0.1455375250       -0.9856423916
 H         -4.9336509340       -2.0754503310       -1.3437058962
 H         -2.6810204069       -2.6340988421       -0.5060482680
 H          3.0667243492       -0.8883213490        1.5146024000
 H          5.3804201474       -0.1000128343        1.6467715332
