99
 xtb: 6.7.1 (edcfbbe)
C           -8.66050469759910       -4.06307111695173        2.94030721131198
C           -7.63651265191139       -3.25076682205109        2.20750899880526
C           -7.92759564836673       -2.68657740404334        0.97090617273514
C           -6.99683841260819       -1.92343633162430        0.29535836929849
C           -5.73928533274242       -1.69382735244187        0.85107900200405
N           -4.78968188425046       -0.91705248811415        0.18000192548143
C           -5.18843427666717        0.16798098314447       -0.61555782737376
C           -4.54972819732665        0.42584519782014       -1.82763428696810
C           -4.92132425912511        1.50827802079725       -2.60008864938985
C           -5.94636139882345        2.35511344382938       -2.19875595620101
C           -6.36296091718582        3.52440891854259       -3.03793352255461
C           -6.58996902339656        2.08495679990493       -0.99543786011619
C           -6.21877383495071        1.01341794307608       -0.20844831324147
C           -3.43417280449213       -1.23755783749306        0.23288557578833
C           -2.99963099776405       -2.56618566161158        0.22525842966692
C           -1.65478404719631       -2.87959078102938        0.16289454140493
C           -0.72233046114225       -1.85453990046697        0.09685452270180
C           -1.16065238275770       -0.52249158189041        0.16070701197091
C           -2.49132645376376       -0.20250277348409        0.23508718579372
C           -0.00016307709225        0.43264042061717        0.00104860229195
C            0.27774285451397        1.38748988923751        1.13272858747956
C            0.67385628160552        1.08896019097864        2.41502527227129
C            0.99351677880106        2.14999114418893        3.26818833101611
C            1.45381383302593        1.87944438019949        4.57613458531652
N            1.84709519601080        1.66553625000383        5.63183479407348
C            0.89861288238177        3.47686554729532        2.83724709164632
C            0.49473934928002        3.76746631287481        1.54852715715477
C            0.19608740908758        2.71874236178143        0.69030086543134
C           -0.19053432310441        2.71298729396492       -0.70844349190054
C           -0.48627821359885        3.75481151541311       -1.57601067131019
C           -0.89053044044760        3.45383198097504       -2.86223448415525
C           -0.98867867089900        2.12344017986375       -3.28139867584519
C           -1.44878240713323        1.84221140690422       -4.58717042944608
N           -1.84135347862004        1.61944178035526       -5.64146933977472
C           -0.67209818381817        1.06919345305423       -2.41871329871750
C           -0.27560281312627        1.37803143242836       -1.13898952646764
C            1.15862014036725       -0.52625063041126       -0.14853872169038
C            2.48955432617900       -0.20917819731515       -0.23053904226294
C            3.43094127308889       -1.24545349005868       -0.21687112254400
N            4.78707989407192       -0.92684638508500       -0.17423556796694
C            5.19179873438355        0.17054516645420        0.60107994706887
C            6.22296363506847        1.00590231553479        0.17551714488423
C            6.60059455212773        2.08946063530437        0.94265961277758
C            5.96277557376279        2.38192596511408        2.14388767826256
C            6.38510701205557        3.56556167350884        2.95982884080068
C            4.93683194034505        1.54519623457055        2.56358948784134
C            4.55883659106373        0.45089620966781        1.81115928745083
C            5.73230772373076       -1.71537489259672       -0.83777746371021
C            5.42990636865832       -2.29181725583762       -2.06984385259677
C            6.36219829129393       -3.07491629309660       -2.72179314055360
C            7.61941743671670       -3.29981971178095       -2.17648744185296
C            8.64889061843083       -4.11281096460859       -2.90123251297840
C            7.91678993742732       -2.71690677260843       -0.94920741616026
C            6.99139723261759       -1.94053639843810       -0.28260030982669
C            2.99449530759134       -2.57320633808722       -0.18881899033631
C            1.64940044951740       -2.88383527129522       -0.11900714139409
C            0.71846819766696       -1.85665059771526       -0.06577565166011
C           -5.44269276073863       -2.25241404061869        2.09328274778686
C           -6.37955728679373       -3.02189266704012        2.75361732519961
H           -9.30396099030468       -3.41103252186716        3.52919582741114
H           -8.18460907542749       -4.76983250237074        3.61553076570629
H           -9.29011038957386       -4.61285984952823        2.24146448583256
H           -8.89643497432282       -2.85681205645052        0.52247651183898
H           -7.23560840436922       -1.50445064280440       -0.67191101483692
H           -3.75846297457236       -0.22868693305363       -2.16424114079447
H           -4.41075060977933        1.68821147681207       -3.53621028591722
H           -7.37368518324879        3.37689453383879       -3.41657383384315
H           -6.36024663332184        4.44018604408343       -2.44767269556280
H           -5.69319446561074        3.65133111377980       -3.88482138219478
H           -7.38998529422036        2.73194875028444       -0.66569627797728
H           -6.72186689977480        0.82461762813690        0.72829598085434
H           -3.73576089333655       -3.35605146926072        0.23356715844105
H           -1.34022399175116       -3.91180611600146        0.12740748752163
H           -2.81813758269329        0.82684594610810        0.26363690043650
H            0.75334305374574        0.06712253148962        2.75709485015262
H            1.15456423013026        4.27114224878091        3.52364261300055
H            0.43195381380100        4.79167688578079        1.21462511073555
H           -0.42096154468875        4.78216514653884       -1.24886726514513
H           -1.14410812805486        4.24379185222174       -3.55361750721111
H           -0.75359444377858        0.04547546488400       -2.75113476850516
H            2.81793683950417        0.81990310250434       -0.27371793251490
H            6.72168564655181        0.80146354353807       -0.76040954080263
H            7.40081542128858        2.73027904508016        0.59820032421672
H            7.41092655288498        3.44271893577757        3.30449468220134
H            6.34410546044385        4.47742491144674        2.36246860823621
H            5.74161720836834        3.68846829512211        3.82729537039432
H            4.43160673339015        1.74290901792257        3.49892038872660
H            3.76839027881114       -0.19507080165694        2.16250941569169
H            4.45999090363201       -2.11971313912383       -2.51276903732594
H            6.10989913401478       -3.51199933143872       -3.67611201763798
H            9.20672577303957       -3.48667988280352       -3.60122962224549
H            9.34403105403993       -4.57898661571609       -2.20022529623073
H            8.14774556629344       -4.91423908713427       -3.48897666808372
H            8.88820528638228       -2.88109215588891       -0.50298550116900
H            7.23557181009727       -1.50676348377932        0.67672672854295
H            3.73069253812817       -3.36337227822790       -0.18816752294500
H            1.33481201759259       -3.91471312583657       -0.06888727621394
H           -4.47371507097136       -2.07732555249529        2.53688834205683
H           -6.13123021438968       -3.44742615966099        3.71471655166731
