99
 xtb: 6.7.1 (edcfbbe)
C           -8.62382379238926       -4.16631428661307        2.87250042234300
C           -7.62265684512293       -3.30230834921517        2.17188212927033
C           -7.91951427283155       -2.69784289839090        0.95479914013780
C           -6.99071159229269       -1.91698158104684        0.29876277965595
C           -5.72509660447019       -1.71512520442377        0.85328436148393
N           -4.77751434784366       -0.92857985404597        0.20279982382287
C           -5.17429851638690        0.16951169740767       -0.57271358775656
C           -4.52801731356162        0.44302285785352       -1.78004975300364
C           -4.89313777844078        1.53750992356460       -2.53502773847693
C           -5.91188547161903        2.38688084595776       -2.11624990576697
C           -6.31660020580693        3.56849801867276       -2.93952744667368
C           -6.56091065948373        2.10179997684679       -0.91737459234171
C           -6.20261117310436        1.01259886669383       -0.15042524525963
C           -3.42716254889212       -1.23802027367919        0.25947055916232
C           -2.98534662660552       -2.57926867278320        0.24076989321732
C           -1.65440243062141       -2.88690562372730        0.14601228596589
C           -0.70659458512278       -1.84683956796177        0.08044475383563
C           -1.15766748345614       -0.49661440534913        0.17012074082557
C           -2.48106125668674       -0.19038684135717        0.24800443560518
C           -0.00263891039055        0.45550350226520        0.00724249071802
C            0.33176306141453        1.39062324985304        1.14911457817309
C            0.79394587004857        1.06188044932995        2.39266357880850
C            1.17754858599366        2.10209098112960        3.26122492952797
C            1.70827060272875        1.79880974440706        4.52141928373494
N            2.17796229904031        1.54932456021939        5.54373375427637
C            1.08000340227345        3.44335677367504        2.84709850019259
C            0.61775960364787        3.76382686645915        1.59385504718199
C            0.24581546524942        2.73641780079712        0.72123894975517
C           -0.20618846199651        2.76156101995977       -0.63603945769780
C           -0.55506062748063        3.82259182076750       -1.47733352764028
C           -1.02700714214311        3.54985514532391       -2.73824312721257
C           -1.15731894080300        2.22396140230569       -3.19096420335299
C           -1.69918019962819        1.97053509025378       -4.45727497787185
N           -2.17931374033864        1.76280519260296       -5.48402380639868
C           -0.79536809150923        1.15000483715141       -2.35462590869506
C           -0.32326015060397        1.43116473567347       -1.10321134873464
C            1.14889232436886       -0.49735428189767       -0.17865252129148
C            2.47247810357128       -0.19291911766428       -0.26044145613970
C            3.41644203450003       -1.24201245572271       -0.28627627083666
N            4.76776336758674       -0.93620765809697       -0.23386212232717
C            5.17148172336561        0.15791172553805        0.54343645094268
C            6.20382822629776        0.99617844928696        0.12128114755063
C            6.56977831409894        2.08162563183101        0.88996262292683
C            5.92450613852045        2.36802524256011        2.09046697480616
C            6.31405549122364        3.56543167969724        2.89812155344841
C            4.90165873297095        1.52344349721980        2.50911698217228
C            4.52947595234943        0.43218510110876        1.75302247327018
C            5.70953642206987       -1.72174789381785       -0.89451080684786
C            5.39799139289487       -2.31179662627873       -2.12256335232028
C            6.33024012922317       -3.08906238148848       -2.77534378076834
C            7.59620797072952       -3.30235265016111       -2.23631651259827
C            8.58485039802410       -4.17950342519138       -2.93896346564220
C            7.89971496270678       -2.71160427681420       -1.01405615166596
C            6.97638267491818       -1.93379360884537       -0.34675904341529
C            2.97189777251884       -2.58259891293314       -0.27720694717030
C            1.64074933044878       -2.88855757095640       -0.18064673975117
C            0.69510008215101       -1.84740214001216       -0.10222820757271
C           -5.42066429809229       -2.31803549305347        2.07695705541812
C           -6.35823526083698       -3.09832827621672        2.71827952522804
H           -8.60042856602893       -3.99032596496891        3.94682195586921
H           -8.39346454927429       -5.21796476645657        2.70304844482723
H           -9.62904846570060       -3.97481993611759        2.50550520334327
H           -8.89236031041747       -2.84734286502315        0.50978101056718
H           -7.23170156461081       -1.46856169279212       -0.65330365620963
H           -3.74511401239882       -0.21527855669392       -2.12630464377002
H           -4.38192757033933        1.72845824478337       -3.46732247703841
H           -7.26130080526854        3.36583623374522       -3.44576313157059
H           -6.45676070287537        4.44571476087583       -2.31255707768516
H           -5.56607401839772        3.78671306195342       -3.69536674868846
H           -7.35277470225661        2.75231037254237       -0.57605446240379
H           -6.70203055308377        0.81583519495834        0.78678425951206
H           -3.72540589349847       -3.36636816554431        0.24686683597374
H           -1.33437001492188       -3.91579121023238        0.08513998989871
H           -2.81534802763030        0.83568536639090        0.29323123899124
H            0.87724030703547        0.03294854130875        2.71299868778774
H            1.38695713071046        4.22123474323522        3.53211560087444
H            0.56074222288558        4.79513159470953        1.27649061306995
H           -0.47300592356031        4.84198942069930       -1.13223835879981
H           -1.31633997648302        4.35292675807181       -3.40124388587202
H           -0.90248531422774        0.13190111965802       -2.70481830060702
H            2.80816690643615        0.83273446562438       -0.29792467418140
H            6.70192294087838        0.79717636579662       -0.81637974039767
H            7.36596405853120        2.72729870577538        0.54842666698775
H            5.92112316809351        4.47080780793997        2.43396190991999
H            5.91388462396132        3.49860134936882        3.90597870326802
H            7.39696451293988        3.66218906873293        2.94995971422376
H            4.39410484734924        1.71522642682693        3.44301017996501
H            3.74517594515839       -0.22274742642022        2.10136600056509
H            4.42692972733082       -2.13864999430381       -2.56179465799113
H            6.07615666328480       -3.53720468587977       -3.72434474251503
H            8.61197226092943       -3.91791141880519       -4.01928096287842
H            9.59047335184485       -4.04087764891526       -2.52580932397122
H            8.29991511867541       -5.22752223185298       -2.85687512469858
H            8.87254146172875       -2.87184039418341       -0.57147542076548
H            7.22287524318009       -1.49490972803016        0.60897891306706
H            3.71031563197423       -3.37135779492037       -0.28985021329741
H            1.31895032627951       -3.91749063053639       -0.12440049314275
H           -4.45159795665357       -2.15053161018475        2.52349971704466
H           -6.11133539190276       -3.55067926502584        3.66804177716828
