  102
 
 C         -8.4109573042        2.6121698725        0.6236132254
 C         -8.6208894397        1.3714385620        0.0456298184
 C         -7.5479929715        0.5517459733       -0.2510105954
 C         -6.2446793873        0.9607536617        0.0215738689
 C         -5.1001969253        0.0940093561       -0.2984160725
 C         -5.1668142002       -1.2790265321       -0.0262363684
 C         -4.1158791252       -2.1293801377       -0.3021857132
 C         -2.9724893723       -1.5853836927       -0.8678754081
 N         -1.7976898676       -2.1913208388       -1.2279219782
 C         -0.9543443091       -1.2523236155       -1.7619280504
 C          0.3411410931       -1.4167300754       -2.2477733674
 C          1.0361016984       -2.6988346854       -1.9918873851
 C          1.3535079481       -3.6084380097       -3.0003599745
 C          1.9350369968       -4.8272609923       -2.7078096867
 C          2.1930762237       -5.1443147609       -1.3800128996
 C          1.8796044773       -4.2150780190       -0.3588130615
 N          2.2393297441       -4.7413513764        0.8547590931
 C          2.7750665930       -5.9898215109        0.6622831900
 C          3.2690229183       -6.8929350163        1.5907275415
 C          3.7566203019       -8.0967588490        1.1194838832
 C          3.7537409498       -8.3986657050       -0.2410508860
 C          3.2622116404       -7.5033144788       -1.1698766572
 C          2.7667858162       -6.2855145135       -0.7217296425
 C          1.3114213973       -2.9817030754       -0.6482180845
 C          1.0302378945       -1.9461318810        0.3701982500
 C          0.0531884862       -2.0729461235        1.3436526506
 C         -0.2841815993       -1.0167258990        2.2001181187
 C         -1.3388254403       -1.1968015612        3.2105398910
 C         -1.1578951953       -0.7319553187        4.5110354169
 C         -2.1504881559       -0.8911665655        5.4598828102
 C         -3.3432532701       -1.5093687593        5.1233232250
 C         -3.5352154734       -1.9703148818        3.8318710813
 C         -2.5397110720       -1.8205406012        2.8847322341
 C          0.3531632354        0.2114102869        2.0796164258
 C          1.3503065852        0.3647307261        1.1281728913
 C          1.7015488512       -0.7258081700        0.3031770084
 N          2.7340126842       -0.3557161244       -0.5163147143
 C          3.0332353916        0.9623527935       -0.2965076754
 C          3.9748949236        1.7726313682       -0.9102937738
 C          4.0754324413        3.0801128673       -0.4853137236
 C          3.2634973003        3.5953688597        0.5353727516
 C          3.4245766825        4.9923902365        0.9657507127
 C          3.7085422149        5.9994618451        0.0450445130
 C          3.8587705958        7.3110328276        0.4544949530
 C          3.7346712781        7.6430683069        1.7931037418
 C          3.4600801736        6.6512075147        2.7193926439
 C          3.3057354581        5.3399405408        2.3104106613
 C          2.3176644109        2.7767328627        1.1417791357
 C          2.1967073117        1.4584633803        0.7303276673
 C          0.9560520362       -0.3002084625       -2.7854663711
 C          0.3606408663        0.9678203997       -2.7476880636
 C          1.1317079143        2.1428026834       -3.1783633538
 C          1.9481793042        2.1063402631       -4.3057412116
 C          2.6862269615        3.2145789689       -4.6772257307
 C          2.6188539546        4.3793726463       -3.9314748066
 C          1.8089332848        4.4276794448       -2.8094799827
 C          1.0774120942        3.3183987765       -2.4326220453
 C         -0.9156820241        1.1219054630       -2.2216034251
 C         -1.5928034418        0.0058876405       -1.7538709296
 C         -2.8885196287       -0.2047603016       -1.1659606176
 C         -3.9549971240        0.6308011093       -0.8733884548
 C         -6.0457376085        2.2116128708        0.6014354220
 C         -7.1197344710        3.0284821608        0.9012480426
 H         -9.2497920908        3.2516158158        0.8563544291
 H         -9.6258707460        1.0428020889       -0.1775526273
 H         -7.7178172755       -0.4076803451       -0.7183330143
 H         -6.0603497301       -1.6756257949        0.4328254393
 H         -4.1824194999       -3.1858450469       -0.0836420924
 H         -1.5805515591       -3.1677646912       -1.1259006313
 H          1.1253771129       -3.3466899270       -4.0232322992
 H          2.1791728129       -5.5244185394       -3.4946951587
 H          2.1281644996       -4.2766775835        1.7395869340
 H          3.2721239852       -6.6612790640        2.6456240628
 H          4.1485725908       -8.8198500993        1.8193764226
 H          4.1437029789       -9.3506243349       -0.5692204305
 H          3.2611640666       -7.7410600914       -2.2230221283
 H         -0.4761704475       -3.0112053420        1.4403234113
 H         -0.2249130829       -0.2571880140        4.7799627475
 H         -1.9939937423       -0.5312244607        6.4667041732
 H         -4.1202980194       -1.6286490943        5.8639615829
 H         -4.4668830011       -2.4444281507        3.5589772241
 H         -2.7048143604       -2.1606813983        1.8736593883
 H          0.0570570747        1.0401432808        2.7045670816
 H          3.1557722974       -0.9457305731       -1.2122504423
 H          4.6098434485        1.3930964792       -1.6969918237
 H          4.8171345634        3.7213944765       -0.9368857145
 H          3.7968253715        5.7526553361       -1.0025907825
 H          4.0728844419        8.0797108971       -0.2744256423
 H          3.8539092129        8.6678927847        2.1126483562
 H          3.3696837910        6.9009791319        3.7669136214
 H          3.1123878659        4.5707045915        3.0439311279
 H          1.6665906378        3.1670924019        1.9096037600
 H          1.9552735961       -0.3936791489       -3.1866848623
 H          1.9890213893        1.2089020082       -4.9066720088
 H          3.3134695586        3.1719922795       -5.5563761850
 H          3.1939116442        5.2453199350       -4.2260851670
 H          1.7453504322        5.3321186032       -2.2221991057
 H          0.4743280283        3.3536077163       -1.5375324935
 H         -1.3800527492        2.0954484207       -2.1904064957
 H         -3.9046115550        1.6829480513       -1.1100711058
 H         -5.0413475497        2.5338045630        0.8355093567
 H         -6.9498007188        3.9939701031        1.3559089341
