  137
 
 C        -12.2896678607       -2.6411301096       -1.4252137568
 C        -11.2302728678       -3.4521762041       -0.6637918194
 C        -10.9745645062       -4.7501949490       -1.4355882394
 C        -11.7602271839       -3.8207168728        0.7302810585
 C         -9.9766749855       -2.6059803015       -0.5090893413
 C         -8.7388477704       -2.9805701864       -1.0210663879
 C         -7.6193846794       -2.1848253829       -0.8623661780
 C         -7.7016843638       -0.9799427375       -0.1711781612
 N         -6.5727721193       -0.1577844272       -0.0071559915
 C         -5.3386546111       -0.7019307319        0.2812417998
 C         -5.2343760452       -1.9186494674        0.9699833517
 C         -4.0061490279       -2.4775351493        1.2299524878
 C         -2.8259207752       -1.8408359614        0.8330396780
 C         -1.5179364248       -2.4225916270        1.1095041184
 C         -0.4818840306       -1.6666869925        1.5668127370
 C          0.7839660772       -2.2410686467        1.8949876295
 C          1.0239155981       -3.6527017283        1.5350233927
 C         -0.0948235476       -4.4298994421        1.0854868711
 C         -1.3038696459       -3.8434859370        0.8804994234
 C         -2.3339863950       -4.6395051295        0.3258427557
 N         -3.1204136817       -5.3265822541       -0.1503290213
 N          2.1944914470       -4.1846162899        1.5756799435
 C          3.2924953175       -3.3147925693        1.9234025409
 C          3.8506361759       -2.6651764950        0.6749786652
 C          3.6754634704       -3.2268625191       -0.5828826275
 C          4.2046573335       -2.5774274805       -1.6827667469
 C          4.9048077577       -1.3932257094       -1.4803149283
 P          5.4516532953       -0.4973261651       -2.9824203903
 O          4.2835335492       -0.0460095134       -3.7647156421
 C          6.4829403309       -1.7050384708       -3.8715554160
 C          6.3444490627       -1.7778582157       -5.2506945977
 C          7.1246102759       -2.6590867619       -5.9788409269
 C          8.0441478324       -3.4652225967       -5.3272534793
 C          8.1834008826       -3.3929267408       -3.9492575301
 C          7.4058616970       -2.5132300572       -3.2187907879
 C          6.5721797466        0.8412620444       -2.4964720772
 C          6.4440137133        2.0444717904       -3.1786195545
 C          7.3282628577        3.0783673904       -2.9262286194
 C          8.3382240476        2.9078150308       -1.9931125836
 C          8.4633798357        1.7079383250       -1.3102568490
 C          7.5864206795        0.6694557772       -1.5643151234
 N          5.0886089139       -0.8554254148       -0.2890253669
 C          4.5741288271       -1.4695653908        0.7729102979
 C          4.7764778149       -0.8561509061        2.0901509958
 N          5.7391941144        0.0470603922        2.2156335273
 C          5.9205259707        0.6292429527        3.3901461412
 P          7.2319442979        1.8931912712        3.5146466627
 O          7.3368644444        2.4599860345        4.8725052368
 C          8.7539712355        1.0643743891        2.9638135903
 C          9.9114633240        1.3155565867        3.6884749958
 C         11.1035005850        0.7224429202        3.3104462545
 C         11.1349915639       -0.1213687728        2.2117832519
 C          9.9763877635       -0.3739507806        1.4924907265
 C          8.7825564129        0.2203794102        1.8614990198
 C          6.8024750273        3.1297926055        2.2489869878
 C          6.2143931266        2.8053885694        1.0335845111
 C          5.8861913765        3.8167755944        0.1482930428
 C          6.1631768644        5.1386287819        0.4597280862
 C          6.7643842301        5.4587532892        1.6666997010
 C          7.0778322691        4.4545516731        2.5649724354
 C          5.1520277246        0.3332463075        4.5093385611
 C          4.1529400125       -0.6174188195        4.3873232111
 C          3.9572408706       -1.2346611999        3.1603955408
 C          2.8695263921       -2.2496550064        2.9475223514
 N          1.6561466308       -1.5610050700        2.5583625179
 C         -2.9295371640       -0.6090743784        0.1777613525
 C         -4.1550870718       -0.0559813840       -0.1054063694
 C         -6.7367123059        1.2309273301       -0.1508973340
 C         -6.1090518707        2.1205393933        0.7187314975
 C         -6.2930369008        3.4798062629        0.5738335587
 C         -7.1068111952        4.0095272388       -0.4270504008
 C         -7.2743595892        5.5164481279       -0.5392334558
 C         -8.2002286768        5.9234994592       -1.6895325602
 C         -5.8983706796        6.1546560253       -0.7824806342
 C         -7.8720752450        6.0531669396        0.7702621590
 C         -7.7328362426        3.1092788310       -1.2827760396
 C         -7.5530849603        1.7447323618       -1.1533075291
 C         -8.9360988778       -0.5899787815        0.3436859841
 C        -10.0454332338       -1.3911430435        0.1721287606
 H        -13.1895038169       -3.2372320370       -1.5613315306
 H        -12.5595582653       -1.7363926581       -0.8875745476
 H        -11.9128138964       -2.3565860749       -2.4057538377
 H        -10.2446127004       -5.3734415664       -0.9239060260
 H        -10.6240874654       -4.5446159887       -2.4445309661
 H        -11.9019871648       -5.3144216743       -1.5116814263
 H        -12.0206015247       -2.9355215879        1.3039506901
 H        -12.6496015712       -4.4407075709        0.6394368198
 H        -11.0070321410       -4.3776463708        1.2843793971
 H         -8.6248312188       -3.9040894128       -1.5640641788
 H         -6.6740438470       -2.4973234400       -1.2821885239
 H         -6.1301726399       -2.4134394972        1.3127173774
 H         -3.9578317507       -3.3997167214        1.7898849388
 H         -0.6112952280       -0.6170484082        1.7799627131
 H          0.0762575046       -5.4722244626        0.8595675052
 H          4.0788552438       -3.9517450673        2.3560853195
 H          3.1298045547       -4.1535545574       -0.6868359903
 H          4.0851679527       -2.9597941835       -2.6867076822
 H          5.6138858955       -1.1423509046       -5.7319405364
 H          7.0148710989       -2.7174072503       -7.0516821151
 H          8.6535661760       -4.1536786812       -5.8936325010
 H          8.8985871581       -4.0254355813       -3.4442091014
 H          7.5022530742       -2.4564982691       -2.1439145902
 H          5.6426496402        2.1520009160       -3.8971415968
 H          7.2294841498        4.0146101676       -3.4556834458
 H          9.0293313718        3.7132904302       -1.7940582431
 H          9.2464459223        1.5834050760       -0.5775232230
 H          7.6720709896       -0.2672939729       -1.0371211395
 H          9.8572571000        1.9690890007        4.5481344217
 H         12.0049292635        0.9170393728        3.8727562630
 H         12.0642620613       -0.5858821736        1.9161582655
 H         10.0072251736       -1.0353874377        0.6387578589
 H          7.8676862423        0.0340326000        1.3206911437
 H          6.0006427498        1.7749233662        0.7926369673
 H          5.4111886880        3.5667116280       -0.7884768097
 H          5.9055073972        5.9214861011       -0.2382862350
 H          6.9803304407        6.4883872628        1.9115243872
 H          7.5248843301        4.6801721327        3.5234708652
 H          5.3517706240        0.8470177298        5.4374831125
 H          3.5289992462       -0.8782009708        5.2303089651
 H          2.6548839702       -2.7430269955        3.9114173221
 H         -2.0297058683       -0.1100895263       -0.1504766656
 H         -4.2110183176        0.8743784212       -0.6499403488
 H         -5.4847864418        1.7392810995        1.5138902862
 H         -5.7923946173        4.1369723088        1.2683069891
 H         -7.8073564453        5.5879015207       -2.6466345129
 H         -8.2799182965        7.0082662841       -1.7223837091
 H         -9.1999673443        5.5183070485       -1.5505652118
 H         -5.9989126790        7.2336617590       -0.8789809452
 H         -5.2142210279        5.9493640069        0.0362869175
 H         -5.4594544566        5.7660500267       -1.6995151514
 H         -7.2208483142        5.8520826206        1.6163896622
 H         -8.8367478241        5.5876316595        0.9630132572
 H         -8.0163617085        7.1292618487        0.7008557273
 H         -8.3716323986        3.4596821061       -2.0763680568
 H         -8.0463192565        1.0685328200       -1.8362586321
 H         -9.0177567473        0.3422766457        0.8832628723
 H        -10.9830472859       -1.0573522509        0.5891984887
