65

N    -10.798602   -0.023669   -0.053162
C     -9.638094   -0.039070   -0.058409
C     -8.204582   -0.058207   -0.064901
C     -7.519529   -1.117839   -0.667262
C     -6.121782   -1.135698   -0.673167
C     -5.389324   -0.095822   -0.077704
C     -3.906859   -0.115563   -0.084516
C     -3.198190    0.491586   -1.167135
C     -3.860704    1.123461   -2.253989
C     -3.172893    1.717493   -3.311249
C     -1.792133    1.699267   -3.316621
C     -1.112161    1.086836   -2.265060
C     -1.782665    0.472411   -1.173432
C     -1.080697   -0.154272   -0.098078
C      0.401951   -0.177101   -0.105693
C      1.095601   -1.226590   -0.714630
C      2.494181   -1.265794   -0.731461
C      3.212502   -0.230364   -0.099402
C      2.545863    0.850377    0.480731
C      1.132839    0.866370    0.487412
C      3.528832    1.763668    0.960391
C      3.445069    3.008275    1.623552
C      4.610769    3.671003    2.014141
C      5.853611    3.104889    1.765905
C      5.962502    1.875867    1.108518
C      4.786410    1.224192    0.679857
N      4.584593    0.004574    0.028366
C      5.617382   -0.864774   -0.435069
C      5.523446   -2.245746   -0.220511
C      6.536360   -3.092997   -0.674466
C      7.640373   -2.567726   -1.344448
C      7.736431   -1.193883   -1.561152
C      6.728976   -0.340366   -1.106818
C     -1.789192   -0.759529    0.985131
C     -1.125063   -1.388476    2.072341
C     -1.811267   -1.980588    3.131463
C     -3.192055   -1.963347    3.138144
C     -3.873658   -1.353572    2.085824
C     -3.204693   -0.740802    0.992014
C     -6.088316    0.963175    0.524280
C     -7.486032    0.982667    0.531088
H     -8.065110   -1.935236   -1.135267
H     -5.599091   -1.966211   -1.145416
H     -4.947852    1.162731   -2.292516
H     -3.720074    2.190164   -4.122148
H     -1.237695    2.157262   -4.131056
H     -0.024037    1.097129   -2.311029
H      0.541872   -2.030950   -1.197005
H      2.997700   -2.079548   -1.244445
H      0.608081    1.700146    0.948185
H      2.475256    3.447645    1.840238
H      4.541264    4.626201    2.528275
H      6.754846    3.617577    2.094498
H      6.944188    1.437712    0.956758
H      4.693477   -2.676183    0.334547
H      6.468104   -4.163535   -0.497549
H      8.426887   -3.229768   -1.697967
H      8.593375   -0.787053   -2.092315
H      6.808351    0.722181   -1.323808
H     -0.037209   -1.424984    2.109447
H     -1.261745   -2.449831    3.942799
H     -3.744095   -2.419543    3.955168
H     -4.961070   -1.363991    2.134336
H     -5.539344    1.779434    0.991564
H     -8.005279    1.814336    1.003885
