  85
 
 O          7.4297014064       -1.4919597156       -1.9934475012
 P          7.0246968282       -0.6491754212       -0.8627348158
 C          7.6851733902       -1.2198703896        0.7377851987
 C          7.9226936322       -0.3754233822        1.8136792102
 C          8.4100752730       -0.8972263557        2.9987983336
 C          8.6603014084       -2.2556284911        3.1112107330
 C          8.4303190606       -3.0974745486        2.0350196904
 C          7.9434646668       -2.5789585593        0.8489715586
 C          7.5776398448        1.0819872882       -1.0167321787
 C          8.7522184447        1.2885423437       -1.7269437256
 C          9.2565460719        2.5674739793       -1.8770997134
 C          8.5846979834        3.6425615127       -1.3179428689
 C          7.4075720762        3.4386881475       -0.6158799616
 C          6.9010771888        2.1601359285       -0.4629457470
 C          5.2203322484       -0.5668520048       -0.6327251395
 C          4.4384696676       -0.8279347399       -1.7495686441
 C          3.0611825460       -0.7645732125       -1.6646951128
 C          2.4491570107       -0.4318332885       -0.4595583231
 C          0.9754650839       -0.3488584799       -0.3641905406
 C          0.2115476245       -1.5228847035       -0.3396207757
 C          0.8153117831       -2.8071678992       -0.3849140047
 C          0.0616074330       -3.9398812545       -0.3744259914
 C         -1.3444804779       -3.8583012655       -0.3211601758
 C         -1.9612291745       -2.6468452417       -0.2622884746
 C         -1.2129915045       -1.4402092034       -0.2543057455
 C         -1.8346411778       -0.1860569455       -0.1817877371
 C         -3.3079958472       -0.1000235457       -0.0922785545
 C         -3.9700401955       -0.4557931751        1.0790267239
 C         -5.3461359907       -0.3801712209        1.1639307115
 C         -6.0849962496        0.0547466452        0.0689796697
 N         -7.4847702618        0.1315827100        0.1539047958
 C         -8.3910455701       -0.2380870371       -0.8174875756
 C         -8.2194001336       -0.8679509178       -2.0412255358
 C         -9.3681827759       -1.1264693327       -2.7697502112
 C        -10.6158706125       -0.7665531992       -2.2600676138
 N        -10.7998140581       -0.1990045807       -1.0840848899
 C         -9.7105233887        0.0544646265       -0.3744372945
 C         -9.5801151604        0.6236781080        0.9340501542
 C        -10.4504281172        1.1188804416        1.8933074011
 C         -9.8901014763        1.5957198914        3.0668107499
 C         -8.5076033304        1.5640715004        3.2346385784
 N         -7.6535743738        1.0980491052        2.3384933493
 C         -8.1902174206        0.6395515480        1.2197430962
 C         -5.4313559367        0.4294289527       -1.1005769162
 C         -4.0545171894        0.3477660703       -1.1775041372
 C         -1.0689578958        0.9878605249       -0.1969512553
 C         -1.6662890140        2.2720718746       -0.0968382012
 C         -0.9121791753        3.4042390622       -0.1279687943
 C          0.4883687427        3.3235822773       -0.2639869454
 C          1.1016774735        2.1117500271       -0.3440145944
 C          0.3544220950        0.9052950496       -0.2982969293
 C          3.2389424631       -0.1798443673        0.6593376948
 C          4.6163129063       -0.2509886477        0.5773805659
 H          7.7400459372        0.6860750976        1.7191172772
 H          8.5985816301       -0.2422716142        3.8372707528
 H          9.0415014681       -2.6569838379        4.0387942693
 H          8.6323444080       -4.1550220602        2.1217239529
 H          7.7669843119       -3.2109687337       -0.0097498377
 H          9.2500415653        0.4342859514       -2.1632338750
 H         10.1707533443        2.7280594161       -2.4294506539
 H          8.9754280824        4.6429557898       -1.4335259429
 H          6.8816096482        4.2798371379       -0.1875313526
 H          5.9774159984        2.0012742861        0.0757880356
 H          4.9303379083       -1.0889866088       -2.6756711844
 H          2.4488699551       -0.9671925203       -2.5316922653
 H          1.8927845482       -2.8689393943       -0.4274845454
 H          0.5343094999       -4.9102919668       -0.4099144109
 H         -1.9272276141       -4.7677323701       -0.3259237998
 H         -3.0386800205       -2.5847555621       -0.2215822549
 H         -3.3955053010       -0.7928686250        1.9293161412
 H         -5.8565022817       -0.6455644255        2.0754112924
 H         -7.2452922897       -1.1594682251       -2.4055177891
 H         -9.3028358150       -1.6136017332       -3.7302519539
 H        -11.5162467400       -0.9597888450       -2.8272861678
 H        -11.5155640040        1.1276165721        1.7205789532
 H        -10.5130671604        1.9926894089        3.8527729816
 H         -8.0539136332        1.9339427183        4.1444387410
 H         -5.9988063507        0.8049232001       -1.9388917843
 H         -3.5474852336        0.6377375776       -2.0864367997
 H         -2.7390835080        2.3344667912        0.0095637813
 H         -1.3808283317        4.3742381037       -0.0505035097
 H          1.0694187353        4.2334025143       -0.3009881704
 H          2.1750026758        2.0487864079       -0.4479941011
 H          2.7619242082        0.0669092556        1.5973965377
 H          5.2221705133       -0.0728901948        1.4548280927
