  69
 
 N        -10.4603989299       -3.1343498332        0.0037568542
 C         -9.4505084988       -2.5914872450        0.0030836936
 C         -8.2053746473       -1.9225389247        0.0022974689
 C         -8.1629431950       -0.5276252093       -0.0000221163
 C         -6.9440126024        0.1197351510       -0.0008084536
 C         -5.7564715302       -0.6073521217        0.0007599056
 C         -4.4502976939        0.0902442991        0.0000559880
 C         -3.8369596526        0.4142515590        1.2161533608
 C         -4.4375666979        0.1013626920        2.4640101051
 C         -3.8278388761        0.4223592672        3.6372666798
 C         -2.5783561172        1.0757083521        3.6360926844
 C         -1.9690676723        1.3929377230        2.4615847450
 C         -2.5707645050        1.0774426018        1.2149882874
 C         -1.9556719506        1.3976017072       -0.0012048177
 C         -0.6382432243        2.0759586952       -0.0018137155
 C         -0.5587431970        3.4652759344       -0.0028686588
 C          0.6753176678        4.0956415765       -0.0032571003
 C          1.8388452159        3.3522893045       -0.0026259927
 C          1.7695481698        1.9585600336       -0.0016280061
 C          2.9889914356        1.1831921719       -0.0010047409
 N          4.1990992620        1.6634295448       -0.0006528397
 C          5.0168932914        0.5706361162       -0.0001194428
 C          6.4372837724        0.4821259559        0.0004814231
 C          7.2403925480        1.6264964889        0.0006805117
 C          8.6085134832        1.5127120359        0.0013105969
 C          9.1900053215        0.2465169205        0.0017479804
 C          8.4098529300       -0.8862413054        0.0015468650
 C          7.0083317939       -0.8142030519        0.0009060352
 C          6.1658038899       -1.9984200318        0.0006879744
 C          6.6878479338       -3.3001548578        0.0009696597
 C          5.8713727010       -4.4073904936        0.0007508994
 C          4.4845659156       -4.2712941262        0.0002443059
 C          3.9301942879       -3.0161750396       -0.0000488160
 C          4.7515014816       -1.8817349148        0.0001561459
 C          4.2267005167       -0.5675730754       -0.0002024589
 O          2.9323424836       -0.1750746974       -0.0007474928
 C          0.5283079080        1.3258495310       -0.0012167401
 C         -2.5718934270        1.0772523003       -1.2167716641
 C         -1.9712695771        1.3923980042       -2.4639737257
 C         -2.5815750029        1.0748465775       -3.6378664850
 C         -3.8310313487        0.4214426154       -3.6377798424
 C         -4.4397335960        0.1007443771       -2.4639093538
 C         -3.8380974726        0.4140703286       -1.2166586798
 C         -5.8065175739       -1.9990845214        0.0030757939
 C         -7.0191914049       -2.6577785447        0.0038255162
 H         -9.0851434466        0.0347198735       -0.0011713065
 H         -6.9032708558        1.1991521638       -0.0026144374
 H         -5.3950258121       -0.3993414619        2.4645352502
 H         -4.2959127438        0.1792245639        4.5797334136
 H         -2.1104354808        1.3215181575        4.5778856442
 H         -1.0118911495        1.8935483541        2.4576556581
 H         -1.4693167188        4.0466481371       -0.0033430779
 H          0.7252176640        5.1743538999       -0.0040466666
 H          2.8090925575        3.8218618880       -0.0028962693
 H          6.7512353190        2.5882083841        0.0003404290
 H          9.2326646353        2.3938165194        0.0014761750
 H         10.2662460640        0.1524980556        0.0022560685
 H          8.9027862938       -1.8452963010        0.0019110766
 H          7.7549619965       -3.4535386800        0.0013523460
 H          6.3104509747       -5.3942523735        0.0009699441
 H          3.8546176434       -5.1481865066        0.0000744222
 H          2.8591916431       -2.8777258575       -0.0004570795
 H          0.4746931967        0.2473028489       -0.0004024273
 H         -1.0140595274        1.8929528656       -2.4610016823
 H         -2.1144610125        1.3203755780       -4.5801331674
 H         -4.2998767662        0.1779702929       -4.5797760128
 H         -5.3971146729       -0.4001101886       -2.4634638019
 H         -4.8841009084       -2.5611421746        0.0042608957
 H         -7.0597325095       -3.7371639095        0.0056002683
