  93
 
 C          4.2989820549       -3.4955142838        0.5601001843
 C          3.0463675314       -3.7230866034        1.4273743420
 C          3.4396647826       -4.3696559387        2.7711813850
 C          2.1098854340       -4.6640821200        0.7024854862
 C          2.5302368769       -5.9538635859        0.4046095283
 C          1.7002052692       -6.8714398674       -0.2119385825
 C          0.3983650924       -6.5092275193       -0.5240709267
 C         -0.0423902619       -5.2338211193       -0.2512303723
 C          0.8097101711       -4.2849096469        0.3339712224
 N          0.3505295529       -2.9992130276        0.5627347635
 C         -0.9257243828       -2.6341922241        0.0564058130
 C         -1.1415991813       -2.5901807403       -1.3199606629
 C         -2.3847722820       -2.2580025587       -1.8157397603
 C         -3.4272073975       -1.9180866154       -0.9511213394
 C         -4.7519735429       -1.5466826501       -1.4850054586
 O         -5.2646918325       -2.1250024730       -2.4547301667
 C         -5.4018616954       -0.4175942245       -0.8049156942
 C         -6.7883710555       -0.2053354897       -0.8624415076
 C         -7.3122736949        0.8866662775       -0.1864815943
 C         -6.4652192970        1.7486683514        0.4841408967
 C         -5.0779384031        1.5041051133        0.4368431607
 C         -4.1350593730        2.4147703552        1.0948880695
 O         -4.5166078014        3.1737450194        2.0124019876
 C         -2.7420878398        2.4237612976        0.6382590760
 C         -2.3533039300        2.0211935470       -0.6455503109
 C         -1.0402004134        2.1147106831       -1.0525264365
 C         -0.0656711269        2.6052723459       -0.1831725729
 N          1.2917369507        2.7457980244       -0.5664368526
 C          2.0829697179        1.6606199401       -0.9079125204
 C          1.5202194537        0.4090017220       -1.1762881762
 C          2.3087753087       -0.6344695806       -1.6118622840
 C          3.6689858168       -0.4490172700       -1.7875330939
 C          4.2425068724        0.7678343553       -1.4581777545
 C          3.4792871411        1.8274275816       -0.9974272998
 C          4.0923185447        3.1064444908       -0.4652644246
 C          5.5189061868        3.3386229508       -0.9674475545
 C          4.1375243250        2.9700180820        1.0753570360
 C          3.1677423447        4.2606631476       -0.7847163184
 C          3.6149916699        5.5486979534       -1.0327672794
 C          2.7303899300        6.5993813820       -1.2123601381
 C          1.3650770298        6.3721887712       -1.1431744286
 C          0.8926422667        5.0979013672       -0.9138725516
 C          1.7823931251        4.0328138050       -0.7351141837
 C         -0.4473762052        3.0455478723        1.0865739843
 C         -1.7606789766        2.9631006066        1.4853222060
 N         -4.5935076149        0.4301083180       -0.1754154547
 C         -3.2045311521       -1.9707795784        0.4273661916
 C         -1.9742082639       -2.3407427401        0.9265669208
 C          1.1015654649       -2.0717226546        1.2638144321
 C          0.5798733939       -0.7960412900        1.5236455856
 C          1.3032915072        0.1346201861        2.2343778803
 C          2.5772427273       -0.1740673634        2.6826368159
 C          3.1100408205       -1.4178153459        2.4014571282
 C          2.3986837935       -2.3835705185        1.7026047784
 H          4.0121166503       -3.0455382709       -0.3870117878
 H          4.8041910569       -4.4357797926        0.3603275204
 H          4.9964047039       -2.8298878010        1.0594034949
 H          3.9200384791       -5.3301578547        2.6121117783
 H          2.5527300258       -4.5258488355        3.3824617950
 H          4.1273086669       -3.7336423786        3.3198918703
 H          3.5326895369       -6.2575964848        0.6618801974
 H          2.0590774665       -7.8649467173       -0.4326536724
 H         -0.2750777979       -7.2209409669       -0.9769466775
 H         -1.0605775811       -4.9653581043       -0.4834282306
 H         -0.3341363172       -2.8282832376       -1.9963106850
 H         -2.5645873536       -2.2341356687       -2.8804179556
 H         -7.4048924881       -0.9011847982       -1.4093194333
 H         -8.3785505256        1.0646139400       -0.1874561223
 H         -6.8211762254        2.6125309872        1.0236404274
 H         -3.0948676606        1.6555030794       -1.3374677674
 H         -0.7729195915        1.8483010961       -2.0646854114
 H          0.4615176073        0.2575613590       -1.0530461441
 H          1.8555257940       -1.5897255284       -1.8265302468
 H          4.2886745177       -1.2495413900       -2.1615484394
 H          5.3087558679        0.8752078119       -1.5628454458
 H          6.1618993928        2.5139557058       -0.6749253187
 H          5.9348461944        4.2355851253       -0.5182791802
 H          5.5378621769        3.4408819444       -2.0500338634
 H          4.5187220005        3.8875459306        1.5178942750
 H          4.7883286990        2.1445143537        1.3526743985
 H          3.1450920659        2.7755245498        1.4738920848
 H          4.6709570558        5.7545485473       -1.0836464566
 H          3.1072725619        7.5927439825       -1.4022960846
 H          0.6670075492        7.1842482328       -1.2794959421
 H         -0.1703590865        4.9146275309       -0.8880990102
 H          0.2968336045        3.4677533117        1.7467391927
 H         -2.0680663126        3.3082419445        2.4618019151
 H         -4.0117894465       -1.7454952887        1.1072122115
 H         -1.8189113703       -2.4106458132        1.9932503737
 H         -0.4041113591       -0.5332504548        1.1709721314
 H          0.8643371405        1.0993209843        2.4348851599
 H          3.1512810049        0.5477578705        3.2423586289
 H          4.1091526890       -1.6388936157        2.7417061927
