  114
 
 C          2.4909717981       -2.0909164649       -2.1167367317
 C          1.7892576255       -1.3933298445       -1.1482257847
 C          0.6350618632       -1.9220930269       -0.5987791902
 C          0.1561040620       -3.1569644080       -1.0322664809
 C         -1.0526101662       -3.7862105260       -0.5193715823
 N         -1.1441956049       -5.0852510807       -0.3695404577
 C         -2.3962676414       -5.3260401662        0.1003511648
 C         -2.9602063775       -6.5791823373        0.4698728107
 C         -2.2163465859       -7.7620289682        0.3952111695
 C         -2.7645760627       -8.9535053316        0.8008388777
 C         -4.0673799863       -8.9736060615        1.2957632758
 C         -4.8111422291       -7.8183297517        1.3647945707
 C         -4.2917016292       -6.5836787245        0.9449798572
 C         -5.0677724813       -5.3551745989        0.9514797819
 C         -6.4272117315       -5.3507694448        1.2957797857
 C         -7.1916542199       -4.2094083116        1.2383987983
 C         -6.6256708930       -3.0141619459        0.8063824009
 C         -5.2943948766       -2.9718886222        0.4734448791
 C         -4.4864474802       -4.1156187596        0.5625496006
 C         -3.1039482824       -4.1319672265        0.2204801580
 N         -2.2209843505       -3.1415491603       -0.1630831368
 C         -2.4120315879       -1.7492907909       -0.1147689595
 C         -2.1844093960       -0.9688926771       -1.2456734333
 C         -2.3243885559        0.4017452536       -1.1750785465
 C         -2.7227513312        1.0106676624        0.0139290806
 N         -2.8234934392        2.4135846292        0.0603198988
 C         -1.7281924612        3.2612617691       -0.2059897135
 C         -0.3718869465        2.9194849547       -0.0905823793
 C          0.1200465116        1.7903467373        0.6218710282
 C          1.4541876063        1.5562860092        0.7425471877
 C          2.4286982569        2.3711164533        0.1017344090
 C          3.8203840574        2.0524027417        0.1439495102
 C          4.3713725868        1.2199854409        1.1510525208
 C          5.7034492097        0.9127423401        1.1860233054
 C          6.5778439320        1.3851089653        0.1915394463
 N          7.9258359308        1.0535197638        0.2124392567
 C          8.6066287573        0.8154426594       -0.9857105871
 C          7.9647526595        0.1623467504       -2.0405355102
 C          8.6397717301       -0.0758007054       -3.2213418149
 C          9.9579256428        0.3282481010       -3.3700363730
 C         10.5991232647        0.9770235691       -2.3255327335
 C          9.9331396901        1.2232874200       -1.1409682020
 C          8.6005838325        0.9450045414        1.4325679839
 C          8.3088545656        1.8256321103        2.4768736191
 C          8.9738459251        1.7159280257        3.6821293443
 C          9.9365448790        0.7348503760        3.8656631142
 C         10.2307038270       -0.1404960220        2.8310569122
 C          9.5701944458       -0.0420388619        1.6221793663
 C          6.0499582730        2.2012877189       -0.8247247495
 C          4.7242259982        2.5371492425       -0.8353281240
 C          1.9326620295        3.5148125655       -0.5869569115
 C          0.6053346626        3.7963474765       -0.6493648087
 N         -2.1461749854        4.5026733657       -0.4969098156
 C         -3.4747540343        4.4887033330       -0.3935691589
 C         -4.3682273034        5.5853661592       -0.5758928136
 C         -3.8832638901        6.8618867340       -0.8728994428
 C         -4.7506370501        7.9163748133       -1.0436381763
 C         -6.1187046747        7.6976474049       -0.9143881289
 C         -6.6079270807        6.4426347261       -0.6219729300
 C         -5.7556131145        5.3423705429       -0.4451906089
 C         -6.2405798460        4.0060746451       -0.1484125453
 C         -7.6073711615        3.7290808421       -0.0438109144
 C         -8.0842625828        2.4661474519        0.2303124787
 C         -7.1926075959        1.4082009572        0.4061447908
 C         -5.8446991390        1.6308480172        0.3123534904
 C         -5.3291094032        2.9163542914        0.0418504000
 C         -3.9527037348        3.1948213076       -0.0647050635
 C         -2.9639324109        0.2262376327        1.1436829796
 C         -2.7959824655       -1.1416081063        1.0817636812
 C          0.8832466656       -3.8637842684       -1.9932546437
 C          2.0401968812       -3.3348292698       -2.5299874161
 H          3.3887101355       -1.6675743242       -2.5421004683
 H          2.1402230739       -0.4280700267       -0.8173341948
 H          0.1185360060       -1.3747848745        0.1749918391
 H         -1.2062658462       -7.7000236371        0.0196420540
 H         -2.1923326303       -9.8679769116        0.7461311378
 H         -4.4991999746       -9.9068381585        1.6277886989
 H         -5.8129030957       -7.8818638519        1.7590782786
 H         -6.9046368907       -6.2674811013        1.6015194808
 H         -8.2365272057       -4.2455922554        1.5097645324
 H         -7.2324328453       -2.1250257011        0.7242093432
 H         -4.8682336953       -2.0493107220        0.1129686525
 H         -1.8940349326       -1.4405610157       -2.1719714594
 H         -2.1346383100        1.0135385587       -2.0443889857
 H         -0.5753761247        1.1321056782        1.1179985276
 H          1.7732531578        0.6964617334        1.3121121718
 H          3.7341602830        0.8364978572        1.9321757447
 H          6.0916847111        0.2800834518        1.9710598266
 H          6.9434656409       -0.1665690452       -1.9169219460
 H          8.1366754009       -0.5883982401       -4.0277943920
 H         10.4825776986        0.1380032579       -4.2939312265
 H         11.6236181095        1.2997144877       -2.4371781724
 H         10.4286728548        1.7407396191       -0.3328836993
 H          7.5695837729        2.5988829795        2.3279343944
 H          8.7450199141        2.4057839631        4.4809494037
 H         10.4545074264        0.6532814071        4.8091172849
 H         10.9743836332       -0.9111611152        2.9699222868
 H          9.7888513943       -0.7335954131        0.8219285508
 H          6.7105706928        2.5801402995       -1.5911370284
 H          4.3542763266        3.1630425417       -1.6320472841
 H          2.6328576796        4.2070151417       -1.0293902420
 H          0.2463902636        4.6866227197       -1.1423258592
 H         -2.8147524270        6.9875598490       -0.9599383025
 H         -4.3765841649        8.9029643413       -1.2735233470
 H         -6.8080471064        8.5197405116       -1.0437126580
 H         -7.6757860765        6.3246021466       -0.5299995622
 H         -8.3259187600        4.5210185281       -0.1809804903
 H         -9.1478439924        2.2948947794        0.3050260095
 H         -7.5658085843        0.4171922206        0.6169130873
 H         -5.1598859391        0.8090681415        0.4412842371
 H         -3.2580944692        0.6984511924        2.0698312299
 H         -2.9612582126       -1.7502979959        1.9586149846
 H          0.5168963669       -4.8293450926       -2.3068354275
 H          2.5885613730       -3.8913309938       -3.2758129737
