  55
 
 O         -5.1569757427        0.0734548314       -0.0631653061
 C         -3.8861796514        0.0543353234       -0.0240368835
 C         -3.1440417045       -1.1834347943       -0.0542054085
 C         -3.8642140042       -2.3960653182       -0.1153125204
 C         -3.2120037960       -3.6032447289       -0.1387802565
 C         -1.8225867471       -3.6484107457       -0.1018051109
 C         -1.1042973044       -2.4638045731       -0.0444864649
 C         -1.7442761334       -1.2373947097       -0.0210893089
 C         -0.8714251427        0.0111512925        0.0303087032
 C         -1.7102326744        1.2816694724        0.0982852194
 C         -1.0370525472        2.4871250382        0.1876178502
 C         -1.7229366395        3.6908950704        0.2421999792
 C         -3.1130095618        3.6871080196        0.2030471827
 C         -3.7978683167        2.5011135503        0.1149059101
 C         -3.1108849793        1.2690758486        0.0617253909
 C         -0.0504364396        0.0603604624       -1.2311379868
 C         -0.7066395239        0.1315992546       -2.4531141563
 C         -0.0040413952        0.1800679760       -3.6406792589
 C          1.3864407289        0.1561129470       -3.6168483764
 C          2.0590245263        0.0854684847       -2.4187921344
 C          1.3537075314        0.0366062189       -1.2063051138
 N          2.0352805595       -0.0340477837       -0.0107111041
 C          3.4645513037       -0.0498891916       -0.0318046533
 C          4.1677293383        1.1472131000        0.0125707884
 C          5.5516604156        1.1278141694       -0.0123985303
 C          6.2302512867       -0.0781555244       -0.0810119802
 C          5.5251268060       -1.2699424757       -0.1244427360
 C          4.1410204816       -1.2611139447       -0.0996348295
 C          1.3858187618       -0.0832162475        1.2035465900
 C          2.1224603236       -0.1560113045        2.3960533747
 C          1.4808717531       -0.2025160195        3.6122386728
 C          0.0915279212       -0.1769183228        3.6746890923
 C         -0.6416361941       -0.1068448198        2.5067832481
 C         -0.0171320770       -0.0604995100        1.2672343390
 H         -4.9427402666       -2.3312155588       -0.1416431673
 H         -3.7844905338       -4.5188700477       -0.1850511367
 H         -1.3038032945       -4.5947082505       -0.1186622030
 H         -0.0238961448       -2.4950687633       -0.0177145859
 H          0.0438325978        2.4863282934        0.2149849054
 H         -1.1787438941        4.6202764353        0.3126549669
 H         -3.6604174722        4.6182378633        0.2427523311
 H         -4.8777270308        2.4683392085        0.0838772633
 H         -1.7866130761        0.1485924245       -2.4575094974
 H         -0.5327266427        0.2356774483       -4.5794586560
 H          1.9438248298        0.1931178446       -4.5402354602
 H          3.1371984538        0.0668244045       -2.4087220703
 H          3.6299026136        2.0818975444        0.0648195410
 H          6.0988297806        2.0575870629        0.0214649215
 H          7.3093822525       -0.0891182675       -0.1009927340
 H          6.0515965725       -2.2106808816       -0.1779341333
 H          3.5830564072       -2.1847570824       -0.1337715721
 H          3.1999816794       -0.1752898373        2.3558592695
 H          2.0617609614       -0.2583329604        4.5200664989
 H         -0.4123118763       -0.2123307603        4.6280102949
 H         -1.7211719858       -0.0869173912        2.5397281837
