  72
 
 N          2.8144468389       -3.8457270173       -0.9485062947
 C          1.7899242907       -3.5505811862       -0.5011719379
 C          0.5555379186       -3.2047186336        0.0266632626
 C          0.0089543049       -4.0791915523        0.9539158079
 N         -0.4354852352       -4.8078945875        1.7335329801
 C         -0.1231780289       -1.9894164536       -0.3836852990
 C          0.6799862095       -0.8579873819       -0.7536847491
 C          0.2505433792        0.0524190833       -1.7423212623
 C          1.0426090876        1.1173830440       -2.1124535741
 C          2.2775276246        1.3227569910       -1.5223650963
 C          2.7271001610        0.4328609395       -0.5360650671
 N          3.9700469825        0.6346557020        0.0684402538
 C          4.4266849446        1.9282978969        0.3189287711
 C          5.7861973001        2.2301368135        0.2106724865
 C          6.2349703571        3.5115035800        0.4597628191
 C          5.3433571661        4.5116145650        0.8154252258
 C          3.9932914500        4.2182293174        0.9237638203
 C          3.5334722596        2.9390278430        0.6819099094
 C          4.7519062479       -0.4657015665        0.4438476846
 C          5.4734454548       -0.4386743410        1.6383324907
 C          6.2429709786       -1.5246640910        2.0052071822
 C          6.3014741873       -2.6481411573        1.1947029833
 C          5.5863836212       -2.6788172861        0.0085078914
 C          4.8177941331       -1.5962090238       -0.3708942349
 C          1.9344703229       -0.6427026519       -0.1653644259
 C         -1.5522035194       -1.9454918038       -0.4047444181
 C         -2.3358422413       -3.1119996560       -0.5486983919
 C         -3.7118149522       -3.0424798299       -0.5472433825
 C         -4.3663179928       -1.8293249907       -0.4088327552
 C         -3.6105963937       -0.6602975231       -0.2518040316
 N         -4.2462631322        0.5807555502       -0.1091571961
 C         -5.3971760769        0.6976750826        0.6681471992
 C         -5.5813628298       -0.1151946745        1.7886037396
 C         -6.7306272817       -0.0033296307        2.5455691356
 C         -7.7081324185        0.9188899375        2.2073088833
 C         -7.5284492363        1.7309038546        1.0984707188
 C         -6.3864811942        1.6238000782        0.3303093058
 C         -3.6777733310        1.7041813261       -0.7172876797
 C         -3.6485873461        2.9344870081       -0.0603880496
 C         -3.0648939686        4.0299116893       -0.6664365394
 C         -2.5009638546        3.9181553350       -1.9271298363
 C         -2.5331163934        2.6995341109       -2.5864092227
 C         -3.1185160502        1.6000443489       -1.9918430617
 C         -2.2284648043       -0.7251194457       -0.2418827527
 H         -0.6886479874       -0.1182997587       -2.2445774401
 H          0.7036303767        1.7939498518       -2.8830183937
 H          2.9070849143        2.1421674699       -1.8334926726
 H          6.4793613565        1.4551953476       -0.0810854566
 H          7.2875655029        3.7336026136        0.3674456204
 H          5.6986222184        5.5122362064        1.0079822799
 H          3.2933337876        4.9896456071        1.2084776693
 H          2.4834348496        2.7080541071        0.7846181856
 H          5.4116418754        0.4297423573        2.2782743995
 H          6.7906522508       -1.4979340236        2.9356396548
 H          6.8993318309       -3.4966688282        1.4901055661
 H          5.6159450586       -3.5495480478       -0.6263010386
 H          4.2666157406       -1.6227892974       -1.2979316492
 H          2.2786227549       -1.3023484567        0.6178980775
 H         -1.8522235623       -4.0654186270       -0.6930606533
 H         -4.2907454349       -3.9452355867       -0.6722356907
 H         -5.4437977330       -1.7744683047       -0.4333422881
 H         -4.8137046581       -0.8229681835        2.0639461351
 H         -6.8594712853       -0.6351861171        3.4115501203
 H         -8.6035970975        1.0046371831        2.8033952633
 H         -8.2884101813        2.4473403684        0.8239786474
 H         -6.2561123509        2.2457029446       -0.5431809986
 H         -4.0738829789        3.0185630241        0.9289333938
 H         -3.0419963231        4.9758605039       -0.1459824584
 H         -2.0417523098        4.7760699699       -2.3939611128
 H         -2.1081697797        2.6074949191       -3.5749403397
 H         -3.1601477123        0.6534580120       -2.5104020447
 H         -1.6618933356        0.1774712607       -0.0653869959
