  112
 
 C         -4.3290348209        2.0115332579       -2.5894426967
 C         -5.4825858775        2.2974464234       -1.8794805465
 C         -6.1359988162        1.2995514208       -1.1834987042
 C         -5.6328564877        0.0001781980       -1.1816252476
 N         -6.2960670365       -1.0080793717       -0.4643401886
 C         -6.5457746569       -2.2412318704       -1.0633674162
 C         -6.6866665598       -2.3348664902       -2.4495066972
 C         -6.9275748824       -3.5552037746       -3.0484659736
 C         -7.0425728787       -4.7043293189       -2.2838296938
 C         -6.9130313240       -4.6180477346       -0.9076001432
 C         -6.6655513848       -3.4034530402       -0.2995290422
 C         -6.7604290016       -0.7212962751        0.8266025192
 C         -8.0267127434       -1.1397776955        1.2279847926
 C         -8.4986296148       -0.8490923873        2.4936228867
 C         -7.7154589086       -0.1217918620        3.3754843108
 C         -6.4617476948        0.3095347136        2.9831264049
 C         -5.9594005641        0.0162811897        1.7186977416
 C         -4.6092821204        0.4557262193        1.3351010844
 C         -4.3181309788        1.8435279919        1.1963175630
 C         -5.2719291950        2.8265254982        1.4826298312
 C         -4.9783142535        4.1775376089        1.3596648513
 C         -3.7160441328        4.5727507128        0.9635221532
 C         -2.7539320094        3.6172248626        0.6605064469
 C         -3.0359274131        2.2500261111        0.7270504473
 C         -2.0459379196        1.2675312720        0.4053161106
 C         -0.7624292431        1.6847104860       -0.1252037388
 C         -0.7293249007        2.4300635572       -1.3126840393
 C          0.4544103110        2.7423424467       -1.9308371934
 C          1.6853709746        2.3776552294       -1.3610617427
 C          2.9212957300        2.6659332568       -1.9875203724
 C          4.1026972711        2.3255751748       -1.4086721773
 C          4.1440012436        1.6967571430       -0.1351011669
 C          5.3523636273        1.3169159785        0.4784731719
 C          6.6491754944        1.4666893768       -0.2087314282
 C          7.1875035597        2.7167505684       -0.4860509956
 C          8.4322142406        2.8396802180       -1.0774253306
 C          9.1566008606        1.7035993871       -1.4012216299
 C          8.6324974656        0.4513800633       -1.1445290135
 C          7.3792980375        0.3185262906       -0.5523118514
 N          6.8455505242       -0.9609317290       -0.3124353413
 C          7.6247018367       -1.9285132798        0.3154440949
 C          8.6266819597       -1.5570664861        1.2142394889
 C          9.4042279864       -2.5177457682        1.8297819796
 C          9.1965206463       -3.8624358556        1.5705245559
 C          8.2031650169       -4.2378561085        0.6805859988
 C          7.4255191959       -3.2850604810        0.0530645990
 C          5.5160965129       -1.2129494468       -0.6758360722
 C          4.6654868899       -1.9408228540        0.1557557215
 C          3.3404018907       -2.1149371752       -0.1892758301
 C          2.8441741903       -1.5797928140       -1.3669803918
 C          3.6911846054       -0.8817160154       -2.2101220454
 C          5.0183041790       -0.7007331045       -1.8725656693
 C          5.3347648361        0.7275317635        1.7385085934
 C          4.1495057837        0.4723713939        2.3914203935
 C          2.9246182275        0.7710911261        1.7844914661
 C          1.6835032463        0.4759998566        2.4051296110
 C          0.5041346791        0.7505511891        1.7908968630
 C          0.4638246889        1.3503067018        0.5049209183
 C          1.6878478210        1.7054190065       -0.1137443036
 C          2.9199672258        1.3944080163        0.5132034055
 C         -2.3386574361       -0.1249266029        0.5675226981
 C         -1.4459483164       -1.1195985125        0.1596360142
 C         -1.7377083863       -2.4681278894        0.3227884906
 C         -2.9283269354       -2.8509056870        0.9098617073
 C         -3.8521753395       -1.8850198041        1.2829288221
 C         -3.6078994177       -0.5233498348        1.0745075305
 C         -4.4765176209       -0.2855051324       -1.9068204615
 C         -3.8309296160        0.7178836517       -2.6005894965
 H         -3.8253081638        2.7936674525       -3.1379466521
 H         -5.8781050698        3.3022331211       -1.8694918827
 H         -7.0387805977        1.5181603231       -0.6319076680
 H         -6.6135293357       -1.4417907840       -3.0525182928
 H         -7.0366774591       -3.6065902958       -4.1220062804
 H         -7.2345333058       -5.6562131267       -2.7550539482
 H         -7.0002928086       -5.5070332961       -0.2999448624
 H         -6.5655080510       -3.3527701709        0.7740176408
 H         -8.6413545070       -1.6910515813        0.5311731012
 H         -9.4826962062       -1.1823948329        2.7875238514
 H         -8.0789968172        0.1065941134        4.3659881905
 H         -5.8375798378        0.8600875642        3.6724305875
 H         -6.2570356967        2.5285042134        1.8078736519
 H         -5.7366349399        4.9126858902        1.5855082527
 H         -3.4691656532        5.6213910811        0.8880204978
 H         -1.7657264806        3.9410101873        0.3714816227
 H         -1.6691834851        2.6930476412       -1.7758104129
 H          0.4507126325        3.2629883064       -2.8781296375
 H          2.9055049594        3.1624630726       -2.9478857946
 H          5.0342396493        2.5381004568       -1.9116282400
 H          6.6282009234        3.5985093889       -0.2074011756
 H          8.8391238001        3.8190857041       -1.2793428481
 H         10.1288930578        1.7930247980       -1.8623587866
 H          9.1877791637       -0.4391181286       -1.4016008293
 H          8.7899247005       -0.5105621606        1.4276868882
 H         10.1737356706       -2.2131905417        2.5242268469
 H          9.8040870981       -4.6107016009        2.0563237369
 H          8.0381311317       -5.2835452451        0.4654288200
 H          6.6621822731       -3.5826321903       -0.6507017007
 H          5.0457662165       -2.3440698785        1.0826753354
 H          2.6850475052       -2.6589580028        0.4750519983
 H          1.8040579083       -1.7077314419       -1.6263017465
 H          3.3156979595       -0.4701643148       -3.1353305213
 H          5.6780841243       -0.1495194294       -2.5268960164
 H          6.2733104347        0.4609132922        2.2045587658
 H          4.1557518426        0.0187046530        3.3720116109
 H          1.6966016381        0.0240291323        3.3868494591
 H         -0.4305269916        0.5241960480        2.2825156614
 H         -0.5084084471       -0.8354336189       -0.2936241493
 H         -1.0245892823       -3.2113867159       -0.0020258036
 H         -3.1514111579       -3.8955794738        1.0679360661
 H         -4.7775064177       -2.1861412952        1.7490327766
 H         -4.0865937181       -1.2927942667       -1.9074999350
 H         -2.9274909275        0.4897757221       -3.1470512910
