78

C     10.259851   -3.137941    1.906597
C      8.871440   -3.198300    1.825102
C      8.158607   -2.172739    1.194783
C      8.822126   -1.067718    0.633323
C     10.222797   -1.026319    0.729278
C     10.936580   -2.051170    1.358837
O     10.980854    0.004456    0.222515
C     10.319626    1.038160   -0.400517
C     11.129836    2.065148   -0.895471
C     10.555751    3.155288   -1.544364
C      9.173521    3.217048   -1.698011
C      8.364180    2.188974   -1.202737
C      8.922984    1.080065   -0.543529
N      8.132629    0.004637   -0.021464
C      6.712629   -0.000824   -0.152491
C      6.104127   -0.623820   -1.247323
C      4.710002   -0.631971   -1.375183
C      3.883083   -0.015781   -0.417381
C      2.409508   -0.011371   -0.536124
C      1.744434   -0.000197   -1.757496
C      0.348469    0.002230   -1.771549
C     -0.374779   -0.004602   -0.593177
N     -1.723444   -0.003339   -0.631968
C     -2.409611   -0.015434    0.538340
C     -3.883201   -0.018890    0.419246
C     -4.710613   -0.640493    1.373119
C     -6.104710   -0.631446    1.244722
C     -6.712714   -0.002092    0.153248
N     -8.132648    0.004225    0.021521
C     -8.822215   -1.066197   -0.636372
C     -8.158834   -2.170058   -1.200278
C     -8.871720   -3.193675   -1.833698
C    -10.260047   -3.132457   -1.915972
C    -10.936627   -2.046736   -1.365952
C    -10.222791   -1.023829   -0.733298
O    -10.980688    0.006165   -0.224713
C    -10.319379    1.038123    0.401124
C    -11.129420    2.064443    0.897740
C    -10.555274    3.152727    1.549689
C     -9.173156    3.213253    1.704807
C     -8.363985    2.185840    1.207882
C     -8.922834    1.078897    0.545412
C     -5.907169    0.613994   -0.808858
C     -4.514583    0.601378   -0.676091
C     -1.744572   -0.013383    1.759777
C     -0.348578   -0.011055    1.773910
C      0.374773   -0.009025    0.595563
N      1.723469   -0.007978    0.634317
C      4.514905    0.598013    0.681314
C      5.907562    0.609731    0.813547
H     10.813549   -3.934361    2.396660
H      8.337245   -4.043168    2.252796
H      7.075594   -2.253222    1.153439
H     12.019996   -1.997683    1.420775
H     12.208061    2.011112   -0.772850
H     11.184613    3.953912   -1.928804
H      8.719695    4.065858   -2.203573
H      7.289649    2.271902   -1.341308
H      6.719483   -1.110385   -2.000456
H      4.280543   -1.148369   -2.230615
H      2.284843    0.023352   -2.697716
H     -0.183068    0.012449   -2.719390
H     -4.281636   -1.161880    2.225761
H     -6.720426   -1.122238    1.994816
H     -7.075874   -2.251076   -1.158559
H     -8.337622   -4.037663   -2.263251
H    -10.813800   -3.927338   -2.408464
H    -12.019967   -1.992523   -1.428597
H    -12.207567    2.011335    0.774038
H    -11.184007    3.950828    1.935416
H     -8.719290    4.060552    2.212863
H     -7.289554    2.267692    1.347858
H     -6.363466    1.102106   -1.666449
H     -3.913132    1.087268   -1.443482
H     -2.284963    0.003143    2.700151
H      0.182900   -0.007946    2.721835
H      3.913755    1.079491    1.451707
H      6.364297    1.092893    1.673700
