  41
 
 C         -5.6343624492        1.8109697715        0.0159390626
 O         -4.2345274160        1.6785546539        0.0295864808
 C         -3.6962984446        0.4246851709       -0.0016177597
 C         -4.4709792169       -0.7701531759       -0.0343890446
 C         -3.8644245159       -2.0488682383       -0.0816685045
 O         -4.4585620002       -3.1125070525       -0.1154117894
 O         -2.4789825562       -2.1041145471       -0.0899719132
 C         -1.7182989598       -0.9820226215       -0.0437078009
 C         -0.3579599911       -1.1644849702       -0.0470601505
 C          0.4697331768       -0.0170084978        0.0093150760
 C         -0.0767738057        1.2853507798        0.0195096842
 C         -1.4408405371        1.4766680042        0.0174342752
 C         -2.3058134314        0.3218481917       -0.0019199138
 C          1.0481482594        2.1881833497        0.0201276615
 C          1.1654491922        3.5672885689        0.0496645250
 C          2.4333691841        4.1255577712        0.0706356256
 C          3.5736312373        3.3246055919        0.0815902634
 C          3.4824870476        1.9444868586        0.0548685136
 C          2.2152996808        1.3813000205        0.0019709722
 N          1.8394015637        0.0523060946       -0.0045517981
 C          2.7132611884       -1.0390573942        0.0010672237
 C          3.7664019106       -1.0964996154       -0.9106895247
 C          4.6266759826       -2.1774768771       -0.9000203868
 C          4.4461804750       -3.2068193442        0.0105826284
 C          3.3978269101       -3.1517083606        0.9157360351
 C          2.5328681916       -2.0745594894        0.9170181479
 H         -5.8259122699        2.8829042922        0.0350204603
 H         -6.0716521057        1.3823064592       -0.8912499260
 H         -6.0924718591        1.3471684277        0.8951802467
 H         -5.5465761625       -0.7562098576       -0.0277404949
 H          0.0467578752       -2.1605971043       -0.1098799574
 H         -1.8902438892        2.4532108460        0.0210165160
 H          0.2849173463        4.1905634022        0.0616748108
 H          2.5439255241        5.1991952983        0.0910448799
 H          4.5471362778        3.7893976528        0.1170763586
 H          4.3693649951        1.3301132199        0.0869292661
 H          3.8840128922       -0.3078616386       -1.6385035537
 H          5.4367602619       -2.2214475836       -1.6123557997
 H          5.1195746572       -4.0500212480        0.0136168811
 H          3.2567014938       -3.9495279916        1.6289899046
 H          1.7304541239       -2.0138682166        1.6362758174
