  79
 
 C         -5.7939177724       -3.6043674098       -2.4785028371
 C         -5.8374946179       -2.3677663268       -3.1057329748
 C         -5.8557943704       -1.1939780957       -2.3637045701
 C         -5.8300148803       -1.2852217690       -0.9888220671
 C         -5.7857946270       -2.5332116300       -0.3494337611
 C         -5.7670192409       -3.7002997580       -1.0961515655
 C         -5.7692140729       -2.3136947184        1.0883994315
 C         -5.7273308314       -3.2055054944        2.1480436403
 C         -5.7228215247       -2.7024168532        3.4394098059
 C         -5.7593385199       -1.3350780063        3.6708665617
 C         -5.8008901241       -0.4353420002        2.6136868433
 C         -5.8053304461       -0.9315925117        1.3278960481
 C         -5.8426534428       -0.1672206154        0.0267532448
 C         -7.0362635079        0.7485166530       -0.1083014007
 C         -8.3715501116        0.4286875643       -0.0402697723
 C         -9.3089730049        1.4442646245       -0.2040524932
 C         -8.9041397259        2.7542835824       -0.4328746197
 C         -7.5635267357        3.0845273052       -0.5016515097
 C         -6.6154963500        2.0760171783       -0.3384623653
 C         -5.1812818247        2.1100241524       -0.3581359095
 C         -4.2776936325        3.1624607930       -0.5477834331
 C         -2.9335680704        2.9036549441       -0.5182828507
 C         -2.4342549656        1.5937274371       -0.2964355704
 C         -1.0432265452        1.3511066972       -0.2656277830
 N         -0.5648647819        0.0959524841       -0.0517407644
 C          0.7036789994       -0.1315296676       -0.0065531747
 C          1.6996497494        0.8734791158       -0.1827655903
 C          3.1047227774        0.6297018297       -0.1315845883
 C          3.6340426866       -0.4948798427        0.5413311060
 C          4.9837427240       -0.7322298563        0.5880555460
 C          5.8835217034        0.1463066410       -0.0288840640
 N          7.2567994864       -0.0941976194        0.0199260856
 C          8.2293192840        0.8310743223        0.3478655262
 C          8.0924110304        2.1527505043        0.7527096820
 C          9.2427054818        2.8579892118        1.0557020439
 C         10.5009297841        2.2663916581        0.9728003575
 C         10.6417211918        0.9411579035        0.6003451632
 C          9.5019164482        0.2145192559        0.2902249222
 C          9.2752717200       -1.1528802979       -0.0974365326
 C         10.1175826888       -2.2283553183       -0.3362406452
 C          9.5597209079       -3.4311912687       -0.7322340579
 C          8.1842017572       -3.5595000766       -0.9097225978
 C          7.3251802920       -2.5007698510       -0.6785732926
 C          7.8759560607       -1.2995984732       -0.2504190773
 C          5.3796382495        1.2699861437       -0.6961955285
 C          4.0292363968        1.5022234615       -0.7491494577
 C          1.1139596904        2.1521243216       -0.4168749994
 N         -0.1573228326        2.3675223413       -0.4480693829
 C         -3.3545000329        0.5311240362       -0.1041465359
 C         -4.6900301969        0.7981028257       -0.1386103501
 H         -5.7804213908       -4.5042228831       -3.0768105746
 H         -5.8577414508       -2.3169798427       -4.1848290245
 H         -5.8890751724       -0.2309637815       -2.8529529602
 H         -5.7326532349       -4.6654336433       -0.6125179017
 H         -5.6992624899       -4.2708926990        1.9727482418
 H         -5.6905443008       -3.3835581551        4.2777850787
 H         -5.7549212878       -0.9652134048        4.6860309561
 H         -5.8279555227        0.6296363887        2.7948133522
 H         -8.6880951931       -0.5893777172        0.1366453587
 H        -10.3624862303        1.2111687125       -0.1541949146
 H         -9.6512707067        3.5252803315       -0.5574024962
 H         -7.2541127386        4.1039582091       -0.6783961697
 H         -4.6407716635        4.1664435494       -0.7126745607
 H         -2.2136933535        3.6962278093       -0.6567449430
 H          0.9882478014       -1.1689375592        0.1194782594
 H          2.9652758447       -1.1669401619        1.0567287971
 H          5.3652680621       -1.5808056286        1.1363921503
 H          7.1211936365        2.6142715245        0.8423620555
 H          9.1622803612        3.8885494494        1.3683484597
 H         11.3762849163        2.8505743064        1.2150385091
 H         11.6158860971        0.4782623842        0.5575506839
 H         11.1856982475       -2.1247169418       -0.2199693335
 H         10.1982874076       -4.2815256237       -0.9200051344
 H          7.7790324748       -4.5051096777       -1.2385334046
 H          6.2634801521       -2.6047245899       -0.8408034114
 H          6.0631142204        1.9343322660       -1.2038609310
 H          3.6654935954        2.3547817329       -1.3017678197
 H          1.7390497565        3.0299645137       -0.5251058245
 H         -2.9738541658       -0.4656384828        0.0599846135
