  128
 
 N         -8.4703825082        3.9579808990        1.5919619053
 C         -7.6860159303        3.1838284822        1.2570954472
 C         -6.7129242507        2.2451468946        0.8825212247
 C         -5.5990370033        2.0656324505        1.6944460751
 C         -4.6615201412        1.0927426187        1.3868318172
 C         -4.7961625430        0.3126414793        0.2488734365
 N         -3.9269596497       -0.7699823370        0.0549674257
 C         -4.3179583760       -2.1077348997       -0.1065416165
 C         -5.6453428846       -2.5898960993       -0.2071366479
 C         -5.8694105883       -3.6666376255       -1.1007822778
 C         -7.1136509925       -3.9352363775       -1.5806556259
 C         -8.2414058359       -3.1616978733       -1.1735137789
 C         -9.5102657475       -3.3243030697       -1.7436394528
 C        -10.5885450066       -2.5924906257       -1.3002164816
 C        -10.4634004867       -1.6980011310       -0.2176250501
 C        -11.5567921207       -0.9642930762        0.2859746759
 C        -11.4033873726       -0.1221056507        1.3727018524
 C        -10.1800186509        0.0084236731        1.9992794535
 C         -9.0515790874       -0.6943484684        1.5247577399
 C         -7.7970281564       -0.6278751356        2.1591601768
 C         -6.7004285439       -1.2706852928        1.6302547603
 C         -6.7893204320       -1.9946404286        0.4336030303
 C         -8.0708395809       -2.2252772165       -0.1218196210
 C         -9.1929293358       -1.5368406974        0.3931294343
 N         -3.2552554019       -2.8984953622       -0.2589152162
 C         -2.1765967263       -2.1151287069       -0.1530153405
 C         -0.8103551517       -2.5100388631       -0.1658071839
 C         -0.4448154550       -3.8574490267       -0.2616568527
 C          0.8759847998       -4.2272609948       -0.2302669637
 C          1.8715350033       -3.2519490364       -0.0868930260
 C          3.2888041594       -3.6320426976       -0.0375432807
 C          4.1684661225       -3.0018112672        0.8429878384
 C          5.5014911563       -3.3547633631        0.8893248561
 C          5.9941683043       -4.3422747189        0.0391389757
 N          7.3502518753       -4.6929869968        0.0746789317
 C          7.8519780528       -5.9761404645        0.1722262420
 C          7.1769368298       -7.1817572034        0.3057929858
 C          7.9306008025       -8.3356744622        0.4097871132
 C          9.3234104454       -8.2988260950        0.3924837399
 C         10.0011188246       -7.0996277147        0.2870167765
 C          9.2654400818       -5.9266216677        0.1802720606
 C          9.6256538289       -4.5391283354        0.0765559810
 C         10.8406050681       -3.8691002446        0.0172994836
 C         10.8326750560       -2.4933427902       -0.1080725752
 C          9.6335518263       -1.7885028470       -0.1903147085
 C          8.4122283447       -2.4331994923       -0.1346924946
 C          8.4134113523       -3.8130319333        0.0172405488
 C          5.1245217057       -4.9763495344       -0.8455041739
 C          3.7893696751       -4.6289881851       -0.8749094643
 C          1.5063987669       -1.9155371113        0.0014126016
 C          0.1729426158       -1.5010547059       -0.0467886318
 C         -0.2197112806       -0.0984435886       -0.0095346786
 C          0.7305732805        0.9205957036       -0.0074882156
 C          0.3942383279        2.2680085872       -0.0383431097
 C          1.4390560429        3.2936637848       -0.0275461576
 C          1.3184481370        4.4520023399       -0.7976124794
 C          2.3100668569        5.4107046000       -0.7986964065
 C          3.4485462738        5.2436785441       -0.0124114605
 N          4.4564845670        6.2154737060       -0.0081909483
 C          5.8057321008        5.9799727093       -0.1902518354
 C          6.4671668671        4.7900698320       -0.4613759654
 C          7.8378301531        4.8376539324       -0.6331658729
 C          8.5404963587        6.0377592544       -0.5481251994
 C          7.8847650463        7.2286411992       -0.3024437838
 C          6.5075720181        7.2060740487       -0.1259061293
 C          5.5246843289        8.2267880099        0.1150403455
 C          5.5993851238        9.6017715854        0.2939957576
 C          4.4339511327       10.3019907630        0.5389504837
 C          3.2076937250        9.6454719306        0.6208516029
 C          3.1081787133        8.2779610506        0.4464124264
 C          4.2724448663        7.5722289559        0.1757656404
 C          3.5738242625        4.0970412547        0.7697783276
 C          2.5855856924        3.1355707900        0.7541359964
 C         -0.9625111632        2.6163106819       -0.1015545727
 C         -1.9280289101        1.6462234960       -0.0811152994
 C         -1.5976435584        0.2786678850       -0.0068978467
 C         -2.5543563579       -0.7613578821        0.0131059614
 C         -5.8622658232        0.5464648598       -0.6659444536
 C         -5.9650163521       -0.1174700382       -1.9038769320
 C         -7.0404491675        0.0906717219       -2.7264723454
 C         -8.0575783499        0.9737054685       -2.3500782726
 C         -7.9599979714        1.6755310771       -1.1771062213
 C         -6.8579027230        1.4974772721       -0.3214044946
 H         -5.4901420723        2.6567019110        2.5917647400
 H         -3.8332969432        0.9146673892        2.0577985371
 H         -5.0031467826       -4.1998353279       -1.4626283221
 H         -7.2611326842       -4.7142384824       -2.3138590234
 H         -9.6337042721       -4.0373710793       -2.5463301644
 H        -11.5560766106       -2.7133319333       -1.7656156246
 H        -12.5221082443       -1.0738524765       -0.1860858329
 H        -12.2536454882        0.4326232072        1.7430469243
 H        -10.0704875770        0.6537788367        2.8585323008
 H         -7.7031672930       -0.0612029447        3.0743503919
 H         -5.7548892435       -1.2306337798        2.1511324867
 H         -1.2338662947       -4.5886135059       -0.3486519625
 H          1.1504068430       -5.2698241043       -0.2845011638
 H          3.7953388137       -2.2508026664        1.5233633689
 H          6.1664475171       -2.8810557185        1.5960713685
 H          6.0986684413       -7.2196042001        0.3384996629
 H          7.4286698313       -9.2870130930        0.5107452997
 H          9.8771603507       -9.2227530841        0.4731414005
 H         11.0805393450       -7.0706740466        0.2910495331
 H         11.7702674036       -4.4163745099        0.0636897662
 H         11.7671498817       -1.9533601677       -0.1527648674
 H          9.6590680918       -0.7144633777       -0.3041472673
 H          7.4894357376       -1.8795080875       -0.2180015176
 H          5.5064921076       -5.7269050281       -1.5213355311
 H          3.1307007744       -5.1130844133       -1.5803469000
 H          2.2971380091       -1.1886502961        0.0890442204
 H          1.7784142640        0.6707115892       -0.0225508281
 H          0.4537522196        4.5847500963       -1.4304683384
 H          2.2195299845        6.2860848111       -1.4243987218
 H          5.9305009323        3.8576041175       -0.5482921839
 H          8.3756906252        3.9245315362       -0.8426707315
 H          9.6118135161        6.0338722835       -0.6861622320
 H          8.4276197847        8.1607185867       -0.2536302610
 H          6.5514481622       10.1089867713        0.2476139020
 H          4.4702190412       11.3724630456        0.6787336972
 H          2.3151996038       10.2172541577        0.8296643271
 H          2.1555649181        7.7772481093        0.5304473850
 H          4.4406217630        3.9773126426        1.4024806851
 H          2.6850518026        2.2646701638        1.3846113465
 H         -1.2504077910        3.6558692805       -0.1437233801
 H         -2.9648250523        1.9348580051       -0.1433472973
 H         -5.1801689667       -0.7942397179       -2.2082864657
 H         -7.1058506846       -0.4302707650       -3.6697879415
 H         -8.9136031890        1.1106912518       -2.9933712534
 H         -8.7283674915        2.3794036963       -0.8900542146
