  102
 
 C         -5.8955924638       -5.4724794685        0.4899788858
 C         -5.1252132327       -4.1993168518        0.3197321744
 C         -4.0310867331       -3.9089144960        1.1274970634
 C         -3.2926935940       -2.7482000890        0.9772745880
 C         -2.1656723842       -2.5026245464        1.9395856002
 C         -3.6507981979       -1.8310344992       -0.0300830507
 N         -2.8979075879       -0.6611167259       -0.2237817225
 C         -1.5276949525       -0.7434537284       -0.2879903420
 C         -0.8827663867       -1.9048735013       -0.8120809160
 C          0.4691876875       -1.9590039942       -0.8971088792
 C          1.2811708307       -0.8677781924       -0.4645880876
 C          0.6394140664        0.3234797778        0.0133220868
 C         -0.7185704685        0.3511319762        0.1131606871
 C          1.4868670649        1.4884304288        0.4755804065
 C          1.7435604030        1.4115874654        1.9774576042
 C          2.1614343110        2.5372131305        2.6895244535
 C          2.4510794029        2.4564476940        4.0375545332
 C          2.3418767622        1.2489739888        4.7093934352
 C          1.9352761590        0.1219421510        4.0105601303
 C          1.6407289178        0.2043405581        2.6630161599
 C          0.7503047101        2.7445504098        0.0424914118
 C          0.8574323474        3.1774201447       -1.2762508766
 C          0.1546353065        4.2807024342       -1.7208436275
 C         -0.6820942834        4.9707943792       -0.8549634437
 C         -0.8148203833        4.5345339259        0.4516381470
 C         -0.1124545607        3.4288375149        0.8965428794
 C          2.8731582494        1.4358332492       -0.1325143220
 C          3.6823357902        2.5639999847       -0.1674230807
 C          4.9688421914        2.4981285045       -0.6589532606
 C          5.4720726510        1.2980950042       -1.1599593519
 C          4.6959556330        0.1541499815       -1.1511823763
 C          3.4072982061        0.2219841705       -0.6027594915
 N          2.6431310037       -0.9390769833       -0.5274966604
 C          3.3396690011       -2.1336428622       -0.3568676932
 C          2.8180587116       -3.1458177626        0.4634974222
 C          3.5342762228       -4.3018191929        0.6772303321
 C          4.7828764942       -4.4624216968        0.0945369021
 C          5.3157617088       -3.4462835351       -0.6944584690
 C          4.6148987361       -2.2792102945       -0.9303401241
 C          5.1102084353       -1.1498301988       -1.8083141921
 C          6.6139792988       -1.2268309859       -2.0743845527
 C          4.3769608548       -1.2405876357       -3.1660426638
 C         -3.5146771726        0.5958585899       -0.3529992604
 C         -4.4829311839        1.0102797146        0.5864163964
 C         -4.8938922678        0.1454189115        1.7413333720
 C         -5.0493280708        2.2653606442        0.4580358517
 C         -4.6969315989        3.1363287930       -0.5663873773
 C         -5.3314490453        4.4894713873       -0.6672728061
 C         -3.7482954789        2.7082139537       -1.4855512939
 C         -3.1522173519        1.4615915418       -1.4026063871
 C         -2.1732576635        1.0812756119       -2.4752165486
 C         -4.7623672795       -2.1057387324       -0.8551960213
 C         -5.1851549946       -1.1830198133       -1.9596431511
 C         -5.4709347379       -3.2787317045       -0.6604827900
 H         -6.9400205719       -5.3330532345        0.2190493363
 H         -5.4820424336       -6.2492732088       -0.1555450320
 H         -5.8396370174       -5.8251615531        1.5175103856
 H         -3.7554375891       -4.6022803858        1.9097017257
 H         -2.4082823753       -2.9394246516        2.9068143821
 H         -1.9634664216       -1.4432177314        2.0758223277
 H         -1.2496717157       -2.9716073182        1.5800515696
 H         -1.4924661243       -2.7152065723       -1.1836204689
 H          0.9561252940       -2.8145549192       -1.3413920028
 H         -1.2127640382        1.2177372393        0.5253411574
 H          2.2556096759        3.4880414762        2.1871202228
 H          2.7675987478        3.3434299634        4.5686665853
 H          2.5711269781        1.1863444781        5.7631070973
 H          1.8464043310       -0.8276306067        4.5193708744
 H          1.3199001357       -0.6847281003        2.1409431000
 H          1.5036434983        2.6432005452       -1.9596036133
 H          0.2560048020        4.6022883353       -2.7477908537
 H         -1.2286881434        5.8364305694       -1.1993062605
 H         -1.4742703341        5.0549107556        1.1319043278
 H         -0.2361366852        3.0953629882        1.9170791291
 H          3.2921098095        3.5079757524        0.1814348214
 H          5.5845751981        3.3850037001       -0.6798517341
 H          6.4681288627        1.2864299833       -1.5691721808
 H          1.8655787100       -2.9964945156        0.9483499781
 H          3.1264772353       -5.0760911155        1.3107137976
 H          5.3494294980       -5.3662565922        0.2594666676
 H          6.2954866955       -3.5891353095       -1.1200137629
 H          7.1767920135       -1.1628915665       -1.1456427530
 H          6.8591386138       -2.1594399350       -2.5757328003
 H          6.9209615026       -0.4184852044       -2.7325908922
 H          3.2987589146       -1.1903924374       -3.0340172434
 H          4.6211145794       -2.1805104955       -3.6569303440
 H          4.6827109352       -0.4174711494       -3.8086349034
 H         -5.5461160433       -0.6642594456        1.4142804931
 H         -4.0283255557       -0.2990104731        2.2267511506
 H         -5.4337060936        0.7392907629        2.4755857357
 H         -5.7854815520        2.5823020909        1.1840013494
 H         -4.9599490890        5.0284763200       -1.5350982974
 H         -6.4144278792        4.3980238407       -0.7498598696
 H         -5.1167352677        5.0772396021        0.2251794408
 H         -3.4668996127        3.3614287221       -2.2990709306
 H         -1.1769214122        1.4438792375       -2.2203825073
 H         -2.1104364333        0.0052502511       -2.6164311092
 H         -2.4659446699        1.5420357014       -3.4170939652
 H         -4.3286674778       -0.8340977139       -2.5311475047
 H         -5.7012054271       -0.3077685401       -1.5650461643
 H         -5.8635890697       -1.7000758673       -2.6347429791
 H         -6.3184862488       -3.4861610727       -1.2990610818
