  67
 
 C          8.9089982082        3.4092417354       -0.4968336938
 C          8.9463486960        2.1781425121       -1.1333856023
 C          7.9046044460        1.2825267549       -0.9813503165
 C          6.8083438620        1.6123794797       -0.1831713109
 C          5.6762841463        0.7093822091       -0.0395464820
 N          4.4263677295        1.1806212546       -0.0836580639
 C          3.6185250983        0.1161556167       -0.0245277701
 C          2.2243680242        0.1535170929       -0.0689279921
 C          1.5313772624        1.3987283740       -0.1730405182
 C          0.1742057425        1.4136555738       -0.1577527644
 C         -0.5583436125        0.1951159827       -0.0283359652
 C         -1.9887704559        0.1449477723       -0.0274120823
 C         -2.6910252367       -0.9096770104        0.5980196366
 C         -4.0613885778       -0.9511354749        0.6094106972
 C         -4.8115441678        0.0557752500       -0.0138386377
 N         -6.2030766672        0.0115403358       -0.0070941386
 C         -7.0467038135        1.0717805457        0.2733011779
 C         -6.7407560343        2.3691428907        0.6636893071
 C         -7.7906324186        3.2331858923        0.9170400169
 C         -9.1157318832        2.8205654451        0.8024457950
 C         -9.4273200675        1.5200862628        0.4473775949
 C         -8.3903466530        0.6374026451        0.1855785228
 C         -8.3470286666       -0.7561850749       -0.1717060575
 C         -9.3271873177       -1.7055752147       -0.4184599145
 C         -8.9355380217       -2.9833087664       -0.7768491527
 C         -7.5878780496       -3.3078085755       -0.9102629812
 C         -6.5936588074       -2.3763912881       -0.6716320185
 C         -6.9790181080       -1.1015760859       -0.2771502514
 C         -4.1330310405        1.1070143740       -0.6453102344
 C         -2.7626485865        1.1504757319       -0.6488414646
 C          0.2322924307       -0.9820394417        0.0429032769
 N          1.5274469917       -1.0178607989        0.0052487435
 O          4.3166135196       -1.0596378640        0.0777787607
 C          5.6386270243       -0.7008313863        0.0824473750
 C          6.6257144902       -1.7123229068        0.2526394262
 C          6.2727549027       -3.0612642070        0.0421215060
 C          7.2071864181       -4.0607634610        0.1878958812
 C          8.5118521995       -3.7550885686        0.5582075346
 C          8.8657302327       -2.4325565002        0.7997584954
 C          7.9433001737       -1.4205177815        0.6554713108
 C          6.7653562141        2.8636945646        0.4315425876
 C          7.8141410260        3.7508680730        0.2818856571
 H          9.7276091689        4.1037561102       -0.6143195602
 H          9.7894227334        1.9158265821       -1.7554823751
 H          7.9245689193        0.3321141814       -1.4943045039
 H          2.1233491481        2.2979705864       -0.2289266672
 H         -0.3567321001        2.3529292824       -0.1959237521
 H         -2.1385320367       -1.6751158198        1.1205333514
 H         -4.5732185265       -1.7415788035        1.1375565671
 H         -5.7190430542        2.6944706723        0.7823640213
 H         -7.5767634325        4.2485032446        1.2164480085
 H         -9.9086834499        3.5246560473        1.0061461576
 H        -10.4542902835        1.1948300527        0.3805109474
 H        -10.3723274204       -1.4485500887       -0.3373396450
 H         -9.6828873556       -3.7386804167       -0.9688973902
 H         -7.3117802909       -4.3071321866       -1.2124701671
 H         -5.5544577336       -2.6339655437       -0.8045244998
 H         -4.6988078043        1.8638090339       -1.1676316486
 H         -2.2652993234        1.9483296427       -1.1780149924
 H         -0.2454643277       -1.9538862947        0.0641816106
 H          5.2587179391       -3.2903720263       -0.2496825357
 H          6.9239020044       -5.0882543692        0.0111454670
 H          9.2428843288       -4.5415703467        0.6691526109
 H          9.8722204373       -2.1944558777        1.1115380908
 H          8.2174726215       -0.4012009487        0.8766608370
 H          5.9034628990        3.1183824309        1.0295118104
 H          7.7769086846        4.7129330324        0.7715030497
