  79
 
 C          3.7843443602       -5.3821501683        2.1103690588
 C          4.1679082334       -4.0536266467        1.8792498187
 C          3.2205722387       -3.1159438655        1.5717084994
 C          1.8506355429       -3.4927225380        1.4631841545
 C          0.7943897914       -2.6140761876        1.1202251552
 C         -0.5410576147       -2.9658888519        1.4799183848
 C         -1.5816830230       -2.1025559484        1.3534858556
 C         -1.3759384729       -0.7976399383        0.8266205698
 N         -2.4362653899        0.0890902920        0.6976744339
 C         -2.4156714784        1.4277190151        1.0540437289
 C         -1.3998794502        2.1773298993        1.6290405582
 C         -1.6557489204        3.5057691466        1.9199596086
 C         -2.8978655624        4.0800006580        1.6565668843
 C         -3.9282318957        3.3329072801        1.1147302291
 C         -3.6905067787        1.9983607681        0.8171715014
 C         -4.5082403756        0.9460833535        0.2930329650
 C         -5.8176827103        0.8335410571       -0.1410818351
 O         -6.7728689025        1.8006438934       -0.1552079575
 C         -7.8955243630        1.2166612247       -0.6714766640
 C         -9.1192773942        1.8247132012       -0.8710591627
 C        -10.1326391026        1.0475895117       -1.4104759654
 C         -9.9254248979       -0.2907027201       -1.7384084966
 C         -8.7015663549       -0.8974491549       -1.5384638012
 C         -7.6676052330       -0.1378583842       -0.9980079574
 C         -6.3001887205       -0.3915471662       -0.6501325763
 C         -5.4613252311       -1.5090275761       -0.7490542376
 C         -4.1564930706       -1.4215918158       -0.3178627927
 C         -3.6941136679       -0.2181785146        0.2239893244
 C         -0.0942300833       -0.4499712036        0.3841796372
 C          0.9594047968       -1.3304932021        0.4773580307
 N          2.1695749911       -0.9885950853       -0.1405005150
 C          2.8053845102       -1.7400652450       -1.1120906881
 C          2.4408201265       -2.9596222253       -1.6641363013
 C          3.2620563807       -3.4948204216       -2.6389214411
 C          4.4113762497       -2.8328982479       -3.0676988269
 C          4.7681574605       -1.6065635082       -2.5387614407
 C          3.9582595362       -1.0522224903       -1.5576302787
 C          4.0053492631        0.1728703799       -0.8139586379
 C          4.8606053474        1.2607749291       -0.7417583814
 O          5.9943548902        1.4736832031       -1.4617677293
 C          6.4956318780        2.6702890526       -1.0331444995
 C          7.6441465149        3.2893841926       -1.4885704659
 C          7.9780668316        4.5052785949       -0.9150546737
 C          7.1892845169        5.0805395887        0.0786903473
 C          6.0415649682        4.4608903607        0.5322530321
 C          5.6853913932        3.2388992516       -0.0282554587
 C          4.6074608134        2.3098087872        0.1657780572
 C          3.5014423731        2.2711502442        1.0211444797
 C          2.6371108581        1.2010908365        0.9654266015
 C          2.8782896858        0.1761305882        0.0473993862
 N          1.5080169120       -4.7830087502        1.7512234781
 C          2.4238576328       -5.6635051386        2.0524899041
 H          4.5040790792       -6.1507561196        2.3384655743
 H          5.2075645615       -3.7690634728        1.9661459871
 H          3.4998291809       -2.0792661878        1.4784542598
 H         -0.6838569725       -3.9466538037        1.9056017342
 H         -2.5661237206       -2.3761731837        1.7001771775
 H         -0.4432759477        1.7373534170        1.8592305211
 H         -0.8776122409        4.1080622758        2.3642394478
 H         -3.0593076699        5.1211749342        1.8931327029
 H         -4.8997081078        3.7652997291        0.9296060463
 H         -9.2725110103        2.8610366326       -0.6145708647
 H        -11.1024615661        1.4904307863       -1.5797616734
 H        -10.7411406067       -0.8616006711       -2.1565255838
 H         -8.5435833977       -1.9340765524       -1.7929074232
 H         -5.8383889637       -2.4263910167       -1.1718071858
 H         -3.4927592506       -2.2656808945       -0.4158263581
 H          0.0504467142        0.4913102430       -0.1265291203
 H          1.5497665469       -3.4748056022       -1.3404778291
 H          3.0050221797       -4.4462160180       -3.0803568213
 H          5.0270304316       -3.2855777606       -3.8307435857
 H          5.6509003113       -1.0838067290       -2.8745894026
 H          8.2497385246        2.8375837511       -2.2581975644
 H          8.8693154662        5.0165406789       -1.2460954025
 H          7.4848947663        6.0295956904        0.5005557688
 H          5.4330133938        4.9085517799        1.3026848373
 H          3.3374661843        3.0729554522        1.7233263540
 H          1.7939417872        1.1379173858        1.6344545666
 H          2.0573220810       -6.6653379892        2.2476892487
