94
 xtb: 6.7.1 (edcfbbe)
C           -3.59286976616923        5.20814213123919        2.28217675442826
C           -3.30493172752485        3.90127261123814        1.60591316329216
C           -4.29557377147314        3.21396239958661        0.91548485361803
C           -4.02711187500097        2.02106297079603        0.27281321196258
C           -2.74971972072003        1.46233662392566        0.31584421049917
N           -2.44161237868423        0.24280667003858       -0.31996132267148
C           -3.50479730602840       -0.63095177613843       -0.59702746609537
C           -3.67114948574460       -1.23506375499514       -1.83990549286415
C           -4.70617530295563       -2.12928499216908       -2.05364658998822
C           -5.60547199752284       -2.44618530422466       -1.04794459634736
C           -6.73888896308200       -3.40236147402223       -1.26974958391865
C           -5.43560729072470       -1.83997885863377        0.19540421419195
C           -4.40588748087255       -0.95376898268642        0.42268660057169
C           -1.36010243874417        0.28168551761752       -1.25914075821191
C           -1.47275868312524        1.24153983889466       -2.26511588378008
C           -0.54021747048948        1.35416164852236       -3.27524317303494
C            0.52454317909374        0.47432691214125       -3.29086959468738
C            0.65591134051071       -0.46593060014015       -2.28554806714863
C           -0.25200300797163       -0.58500703157264       -1.23586937645163
C            0.00309460165889       -1.59288832391532       -0.10625048067034
C            0.31361162613170       -0.73790309058082        1.12761488286331
C           -0.52852676373678       -0.76246980884709        2.23782417457823
C           -0.33994883941926        0.03868051023550        3.34878771799966
C            0.71281759405784        0.93297411867917        3.38032238386069
C            1.56622888073432        0.98164800698664        2.29768163504623
C            1.39843062721062        0.15800134776510        1.18378961199047
N            2.39677987408243        0.29682752027171        0.16442798018234
C            2.59865321036585        1.59264504392364       -0.34006271133973
C            1.50168083021415        2.37651197091310       -0.69042923622688
C            1.67078387082811        3.65229956019298       -1.18878495524433
C            2.93665002035260        4.19653863053590       -1.36408855705219
C            3.12029578424092        5.57011426404238       -1.93671361102049
C            4.02996272650268        3.41795152172065       -1.00494138794578
C            3.87115897032124        2.14509320155880       -0.49336555541179
C            3.51219260171808       -0.55815884614616        0.23342931437794
C            3.89280702432605       -1.19396917030996        1.41289732176827
C            4.98163592730781       -2.04732779101035        1.42900240276815
C            5.72395139959053       -2.29289474455794        0.28224652910870
C            6.91472317295432       -3.20293381467523        0.31366199217529
C            5.34599052853523       -1.64912488481764       -0.89215723112674
C            4.26117610813423       -0.79837521785928       -0.92211050458076
C           -1.23814341225597       -2.51472598677070       -0.00436160599042
C           -0.96491963472649       -3.92307609823830        0.54541766220426
C            0.20383715653059       -3.93481318089315        1.51898678842723
C            1.47007027658198       -3.46862762777164        0.79775130276168
C            1.16679115028598       -2.55781331440796       -0.39695961992851
C           -1.75428181776651        2.15234347302715        1.00264073812537
C           -2.02928214763004        3.35077043668530        1.63006256638775
H           -4.65000055460481        5.29981683469908        2.51631867849209
H           -3.31473632693864        6.03732379182455        1.63054953896477
H           -3.01694577357959        5.29995721947100        3.20248230399089
H           -5.29377975994947        3.62560105535736        0.86519574604230
H           -4.81382403174284        1.52358785211966       -0.27535133307212
H           -2.98885984098909       -1.01066786560325       -2.64352063582186
H           -4.81172362949769       -2.59070213507934       -3.02240465647831
H           -6.82941166127879       -4.10518892995125       -0.43544631185870
H           -6.58677402460672       -3.96432480247625       -2.20387268388781
H           -7.68744862746872       -2.84527789498505       -1.35508998520105
H           -6.12156712541155       -2.06926935716653        1.00310164109403
H           -4.28488326216916       -0.49329965361329        1.39592172370333
H           -2.32985494466384        1.90174361833708       -2.24398899432927
H           -0.65399696146478        2.10590741169345       -4.04269572470952
H            1.26064625552909        0.52165206304967       -4.08019468344470
H            1.50497988443870       -1.12482874909510       -2.33194388347475
H           -1.37656819624223       -1.42687919430564        2.24998249634047
H           -1.02551753692037       -0.03246091707534        4.18022498608501
H            0.87185369250953        1.57615661374801        4.23194907372770
H            2.40117724922468        1.66877514312015        2.29803212776706
H            0.50798471941478        1.97907569382848       -0.57553050854400
H            0.79558698232896        4.23268677945569       -1.44727336760287
H            3.22668612761322        5.51371245370140       -3.01858006776556
H            2.25968113344331        6.19985875537934       -1.71387376527678
H            4.01490361989446        6.04168091872199       -1.53312123352426
H            5.02786980415669        3.82027347843544       -1.11026096614307
H            4.74437835309239        1.58252209348200       -0.19779023177680
H            3.34190054921269       -1.01038194005759        2.32344548393590
H            5.25941360949774       -2.52813900397542        2.35576205728829
H            6.77504495133605       -3.99811660900735        1.04053558376507
H            7.80765854671724       -2.64154894826920        0.59382425571664
H            7.09012747241809       -3.64422644113949       -0.66614732600599
H            5.90775410544130       -1.82075118759502       -1.80039729525170
H            3.97769867633291       -0.30655259306183       -1.84250539431904
H           -2.02110888124207       -2.04735552543275        0.58009087236414
H           -1.63490733522383       -2.62460154173058       -1.01730973780315
H           -1.86879833195229       -4.29495262074417        1.03109900600603
H           -0.73806003277912       -4.60763232364442       -0.27694636306017
H           -0.01214356637293       -3.27600877760421        2.35781913935163
H            0.34743414424473       -4.94105583716434        1.91832971720274
H            2.11724837640395       -2.94082109496503        1.49827556013728
H            2.03211628915256       -4.32992819882161        0.42696576643546
H            2.08290005615595       -2.03134510546588       -0.64259812773189
H            0.88771882627323       -3.16533527644256       -1.26131754539909
H           -0.76228590978197        1.73703926489239        1.05634755543569
H           -1.23420613147318        3.86162595070562        2.15603787475719
