  78
 
 O         -5.5191822911        0.7068102002       -2.5389581609
 S         -5.7150991280        2.0390860420       -2.0100730772
 O         -6.1660969631        3.0557343098       -2.9353275906
 C         -6.8493363832        1.9608488307       -0.6226029314
 C         -7.7413659277        2.9941887381       -0.4114635320
 C         -8.5871497888        2.9397613264        0.6849260611
 C         -8.5246937128        1.8596150102        1.5519182657
 C         -7.6234557025        0.8291966256        1.3286604766
 C         -6.7758420519        0.8787662707        0.2341213724
 C         -4.1649640294        2.5842229030       -1.2711055431
 C         -3.9540932216        3.9332082079       -1.0476470826
 C         -2.7689832881        4.3438835846       -0.4555152925
 C         -1.8145487139        3.4092497384       -0.0931787171
 C         -2.0366668014        2.0501969257       -0.3182173800
 C         -1.0305482151        1.0562430966        0.0628607606
 N          0.1618913316        1.4917966453        0.4571787249
 C          1.0466532732        0.5543941677        0.7869042482
 C          2.3819728324        0.9876537454        1.2045313597
 C          3.3474656009        0.0529943524        1.5805275279
 C          4.6065130283        0.4679822288        1.9784834095
 C          4.9172559774        1.8193255332        2.0027012534
 C          3.9544676625        2.7400952064        1.6283705620
 S          4.3710870536        4.4930241090        1.6175505939
 O          5.2118283092        4.7740127504        2.7609076624
 O          3.1447020840        5.2509389886        1.4995600916
 C          5.3349042144        4.6878623456        0.1169033405
 C          6.7109218677        4.7809816975        0.1936586421
 C          7.4444311388        4.8873709627       -0.9774243414
 C          6.7935163981        4.8936877123       -2.2015004336
 C          5.4110754404        4.7989872658       -2.2640979170
 C          4.6731636487        4.6926864844       -1.0965489869
 C          2.6970592937        2.3461376460        1.2283952138
 N          0.7915482930       -0.7503598969        0.7574781131
 C         -0.4298203193       -1.0976244600        0.3608407783
 C         -0.7625960384       -2.5238077603        0.3305619266
 C         -1.9544967936       -2.9632912101       -0.2462092928
 C         -2.2695650393       -4.3110326299       -0.2631268592
 C         -1.3993066209       -5.2349276051        0.2956754357
 C         -0.2205715743       -4.7907103218        0.8684132270
 S          0.9225330372       -5.9955108572        1.5675197178
 O          0.1622751078       -6.9709521494        2.3183995285
 O          1.9571119120       -5.2786556333        2.2806991742
 C          1.6390106124       -6.7897250959        0.1271746916
 C          2.4978338438       -6.0536561373       -0.6674062018
 C          3.0345418242       -6.6416706115       -1.8008400039
 C          2.7023074191       -7.9490403703       -2.1242845351
 C          1.8391511188       -8.6754289037       -1.3186100269
 C          1.2988884401       -8.0916354231       -0.1835383958
 C          0.1125840996       -3.4547730336        0.8894710269
 N         -1.3674740576       -0.2291059140       -0.0058646940
 C         -3.2293645430        1.6392726986       -0.9123189951
 H         -7.7683615081        3.8116321939       -1.1147279589
 H         -9.2927781328        3.7373077459        0.8596106198
 H         -9.1846807671        1.8183419515        2.4052326272
 H         -7.5811225928       -0.0115968226        2.0038700616
 H         -6.0723668560        0.0886535323        0.0248154239
 H         -4.7084382457        4.6396752375       -1.3555817430
 H         -2.5887434532        5.3927440961       -0.2785795446
 H         -0.8884305730        3.7150142778        0.3681382463
 H          3.0908142617       -0.9945835951        1.5600548027
 H          5.3454666381       -0.2610998256        2.2721448311
 H          5.8852535062        2.1716958510        2.3216322289
 H          7.1799399115        4.7829231619        1.1651922854
 H          8.5198190301        4.9656837421       -0.9331948130
 H          7.3662481048        4.9763338723       -3.1128379921
 H          4.9083155505        4.8086593662       -3.2189898121
 H          3.5965642271        4.6287351344       -1.1087686677
 H          1.9640006438        3.0861358061        0.9514629965
 H         -2.6218651823       -2.2335036371       -0.6772245245
 H         -3.1935556678       -4.6419992615       -0.7109214109
 H         -1.6262650910       -6.2890753723        0.3087002084
 H          2.7431678767       -5.0427654365       -0.3823490369
 H          3.7095907627       -6.0814838086       -2.4293235783
 H          3.1215482028       -8.4047352449       -3.0085512472
 H          1.5858257295       -9.6933851740       -1.5717389298
 H          0.6287086097       -8.6254442089        0.4721171888
 H          1.0330135925       -3.1384734392        1.3529503951
 H         -3.4131432358        0.5963045209       -1.1116668519
