  94
 
 N          1.9716031340       10.8532364229        0.3266609060
 C          1.4380409555        9.8398111477        0.2607781337
 C          0.7349419189        8.6153080143        0.1764451343
 N          1.4125385043        7.4783242870        0.2180488950
 C          0.7333819773        6.3336408522        0.1445584056
 C          1.4491650959        5.0920361870        0.1669954161
 C          2.8497000760        5.0890463918        0.2422271109
 C          3.5521889608        3.9120854900        0.2379146395
 C          2.8754246623        2.6857524610        0.1563012750
 C          3.6100992479        1.4200856906        0.1239937343
 C          3.1135055875        0.2813868324        0.7628900901
 C          3.7930136218       -0.9152698112        0.7173717912
 C          4.9951696461       -1.0250940806        0.0122083863
 N          5.6715816414       -2.2385698135       -0.0574869194
 C          7.0740807344       -2.2630922958       -0.1099903980
 C          7.7326756220       -3.1654422342       -0.9441035112
 C          9.1137517401       -3.1919050849       -0.9864507721
 C          9.8562623608       -2.3195187757       -0.2067872394
 C          9.2057538019       -1.4201154223        0.6227733854
 C          7.8252516545       -1.3910644788        0.6771779670
 C          4.9616176252       -3.4480315612       -0.0839114309
 C          3.7640685367       -3.5524336896       -0.7913037816
 C          3.0689393974       -4.7464896220       -0.8104445823
 C          3.5584371901       -5.8547447438       -0.1379564541
 C          4.7526494060       -5.7586705374        0.5582284214
 C          5.4498805754       -4.5659801313        0.5917849602
 C          5.4996943575        0.1131450416       -0.6238335523
 C          4.8228814483        1.3109696644       -0.5598627391
 C          1.4874304110        2.6901391154        0.0929479767
 C          0.7427340597        3.8693104315        0.1019877518
 C         -0.7117768382        3.8741560224        0.0404227140
 C         -1.4634807090        2.6995028345        0.0322907677
 C         -2.8510857815        2.7046096686       -0.0356378120
 C         -3.5932276183        1.4427814177       -0.0255184191
 C         -3.1791158731        0.3762390795        0.7756624478
 C         -3.8720876426       -0.8132242619        0.7922532400
 C         -5.0019247880       -0.9903969500       -0.0119573536
 N         -5.6914517348       -2.1984273881       -0.0090281561
 C         -7.0820029469       -2.2261943293       -0.1928051951
 C         -7.8933423198       -1.2486659568        0.3825441720
 C         -9.2623421834       -1.2843887905        0.1979910581
 C         -9.8436110716       -2.2955603474       -0.5502114576
 C         -9.0421696493       -3.2731902620       -1.1177051597
 C         -7.6713804769       -3.2406117943       -0.9465063777
 C         -5.0013051004       -3.4042895105        0.1909197140
 C         -5.5595585299       -4.4147181466        0.9728139725
 C         -4.8785310996       -5.6018940327        1.1645668081
 C         -3.6329699512       -5.7974069826        0.5897675738
 C         -3.0741361373       -4.7960033708       -0.1880364435
 C         -3.7516695249       -3.6093133689       -0.3932606079
 C         -5.4186271058        0.0733109395       -0.8179167720
 C         -4.7319692296        1.2675543037       -0.8141017898
 C         -3.5206159254        3.9350930607       -0.1090321042
 C         -2.8113949337        5.1080306442       -0.0902160366
 C         -1.4112139866        5.1017096412       -0.0084963768
 C         -0.6884571773        6.3387134293        0.0374975188
 N         -1.3610536731        7.4884061695       -0.0144050886
 C         -0.6769656946        8.6205765792        0.0484886438
 C         -1.3727463939        9.8505113784       -0.0141886480
 N         -1.9001903940       10.8681711090       -0.0618712475
 H          3.3554960857        6.0404978486        0.3028320734
 H          4.6284683243        3.9265739605        0.3141067639
 H          2.2009560981        0.3448391263        1.3365750036
 H          3.4016489774       -1.7781713856        1.2356126335
 H          7.1547265888       -3.8414054407       -1.5575001727
 H          9.6131268835       -3.8935689830       -1.6386324937
 H         10.9350607421       -2.3409780575       -0.2445015307
 H          9.7772687963       -0.7414692611        1.2391231618
 H          7.3194123537       -0.6964565878        1.3320530036
 H          3.3866967253       -2.6943538557       -1.3282135666
 H          2.1432805094       -4.8138527122       -1.3633261808
 H          3.0145348899       -6.7872094163       -0.1577852470
 H          5.1411346489       -6.6166505183        1.0873606513
 H          6.3762844724       -4.4922065991        1.1425990491
 H          6.4226561381        0.0446094922       -1.1804831249
 H          5.2186623719        2.1672058699       -1.0853216566
 H          0.9862336187        1.7410489522        0.0034756825
 H         -0.9666794163        1.7443921528        0.0620949385
 H         -2.3258300260        0.4964346990        1.4264325213
 H         -3.5492982489       -1.6168256400        1.4375041285
 H         -7.4442929196       -0.4664711972        0.9772577518
 H         -9.8801667886       -0.5221489163        0.6501461379
 H        -10.9140059310       -2.3220627081       -0.6889964780
 H         -9.4864133888       -4.0632743110       -1.7054178444
 H         -7.0476844783       -3.9993476124       -1.3964734116
 H         -6.5266941734       -4.2610226566        1.4290216665
 H         -5.3205584808       -6.3759917545        1.7747724759
 H         -3.1020657315       -6.7244519771        0.7460904340
 H         -2.1066823132       -4.9424739984       -0.6458285536
 H         -3.3195515906       -2.8342588985       -1.0093652029
 H         -6.2819188358       -0.0499590357       -1.4549935082
 H         -5.0591853622        2.0656901179       -1.4637149951
 H         -4.5986665978        3.9569997085       -0.1515486602
 H         -3.3120134016        6.0633820625       -0.1284470353
