  93
 
 C          0.8996720244       -0.2197670682        4.9879278056
 C          0.2427020934        0.1004085152        3.6854427451
 C         -0.9736084429        0.7898565348        3.6564508270
 C         -1.5850686013        1.0996480160        2.4666817001
 C         -1.0007458388        0.7287203433        1.2447703885
 C          0.2242553894        0.0416747112        1.2614788440
 C          0.8184328994       -0.2602618545        2.4774920783
 C          0.8943928522       -0.4135623981       -0.0082717461
 C          2.3303780536        0.0798139414       -0.0095466304
 C          2.5420607383        1.4467649918       -0.0725939846
 C          3.8187849144        1.9802829606       -0.0622465084
 C          4.9308949567        1.1364239183        0.0213443567
 C          6.2962919942        1.6848060898        0.0306804582
 C          7.2662048501        1.1642023044        0.8846131794
 C          8.5489120671        1.6806760223        0.8918117910
 C          8.8856011649        2.7229148398        0.0435799438
 C          7.9298582445        3.2466857083       -0.8113413310
 C          6.6455653620        2.7342727159       -0.8167472469
 C          4.7240339071       -0.2281749287        0.0896701542
 C          3.4321639051       -0.7812944624        0.0715001559
 C          3.2969144433       -2.2250829046        0.1329087671
 O          4.3133843524       -2.9786363458        0.2373954790
 C          1.9606623696       -2.7484768170        0.0587068404
 C          1.7745672755       -4.1499505347        0.0685212298
 C          0.5277703952       -4.7055056178       -0.0150874058
 C         -0.6162434963       -3.8994193203       -0.1232836695
 C         -1.9559469446       -4.4696425483       -0.2314229297
 C         -2.2962077858       -5.6481130570        0.4395545930
 C         -3.5665998179       -6.1805370378        0.3392556598
 C         -4.5310437245       -5.5527952194       -0.4338314565
 C         -4.2082082011       -4.3861433266       -1.1092778938
 C         -2.9388784802       -3.8511656414       -1.0108331474
 C         -0.4303628532       -2.5127708581       -0.1252853661
 C          0.8180751768       -1.9385989868       -0.0331511160
 C          0.1924339495        0.0947351505       -1.2383723781
 C          0.7541970122       -0.1607317510       -2.4804397768
 C          0.1371828444        0.2272186202       -3.6589729105
 C          0.7501670364       -0.0553195332       -4.9913333264
 C         -1.0950179142        0.8833331926       -3.5728502498
 C         -1.6740281273        1.1493140151       -2.3564947054
 C         -1.0371258073        0.7701082430       -1.1634972130
 N         -1.6133444849        1.0496026319        0.0548405811
 C         -2.8849427269        1.6971775451        0.0869125834
 C         -2.9745026277        3.0760217407       -0.0525995775
 C         -4.2117179528        3.6885223717       -0.0204145606
 C         -5.3866555962        2.9567539291        0.1483777711
 C         -6.7219962301        3.6824253307        0.1770779671
 C         -7.9064595712        2.7310418728        0.3711599932
 C         -6.9148930925        4.4247176380       -1.1539227524
 C         -6.7171934621        4.6868762619        1.3393318671
 C         -5.2729119827        1.5776620057        0.2862746913
 C         -4.0395844617        0.9494639339        0.2583073196
 H          0.1828974282       -0.6586427031        5.6798923634
 H          1.7270288094       -0.9103642473        4.8473771882
 H          1.2852171948        0.6923114271        5.4445117185
 H         -1.4379381906        1.0838440140        4.5857864688
 H         -2.5213315654        1.6348319227        2.4675569288
 H          1.7570685774       -0.7956432699        2.4683968065
 H          1.6882236284        2.1085436872       -0.1277035854
 H          3.9548012698        3.0504946991       -0.0939834849
 H          7.0050408908        0.3576430129        1.5549834656
 H          9.2891243006        1.2683451268        1.5628026028
 H          9.8888215743        3.1237250185        0.0482764256
 H          8.1876419074        4.0566164014       -1.4788876270
 H          5.9083985009        3.1353994108       -1.4973346547
 H          5.5552011260       -0.9178641212        0.1346289805
 H          2.6631175866       -4.7626267393        0.1359295352
 H          0.4287246174       -5.7815884182       -0.0294341475
 H         -1.5600278590       -6.1359790444        1.0621794957
 H         -3.8093455429       -7.0900984900        0.8710398069
 H         -5.5240074724       -5.9710925262       -0.5113446370
 H         -4.9510079859       -3.8953661301       -1.7227336443
 H         -2.6914202368       -2.9579869645       -1.5671003911
 H         -1.2989737435       -1.8717838271       -0.1731401643
 H          1.6998452085       -0.6827834383       -2.5141709682
 H          0.8366443552        0.8621457588       -5.5719606615
 H          1.7364157965       -0.4980051142       -4.8806965359
 H          0.1207192387       -0.7441566158       -5.5547466976
 H         -1.5994909913        1.1833818031       -4.4790870487
 H         -2.6272065347        1.6519939030       -2.3141857922
 H         -2.0756957327        3.6600971223       -0.1838522511
 H         -4.2525947443        4.7608311075       -0.1289396995
 H         -7.9708995070        2.0120363150       -0.4423696320
 H         -8.8310570095        3.3044477256        0.3836118731
 H         -7.8317939145        2.1979011757        1.3162304735
 H         -6.1368112414        5.1657833182       -1.3141623179
 H         -7.8754227200        4.9351409730       -1.1589633588
 H         -6.8949973350        3.7214327437       -1.9842093406
 H         -6.5539251713        4.1708196634        2.2834864295
 H         -5.9374343548        5.4336040799        1.2185054286
 H         -7.6743283401        5.2011369820        1.3899122474
 H         -6.1477927129        0.9639650259        0.4191232139
 H         -3.9726254602       -0.1225470550        0.3712953239
