61
 xtb: 6.7.1 (edcfbbe)
C            5.18134471249502       -2.77851251470501       -0.02673973799431
C            3.84874424774623       -2.09430929490952        0.00790425462899
C            3.59537608870768       -1.03698273569094        0.87104257597280
C            2.35674647983636       -0.42198927740017        0.92743048576318
C            2.13822858776047        0.66711039480534        1.93247749744178
C            1.32395833612949       -0.81904781059093        0.03780016782214
B           -0.00196905321799        0.01771980159090       -0.00190164899875
C           -1.31787930586832       -0.83730235884615       -0.03977676266499
C           -2.35302879356474       -0.46103259716646       -0.93548020110003
C           -2.14846613689828        0.62959312777774       -1.94217578487478
C           -3.57797061597294       -1.09987131621274       -0.88416066793031
C           -3.81611682893407       -2.16106306446632       -0.01781488564683
C           -5.14993790259439       -2.84290689646962        0.01005657558473
C           -2.78264350764122       -2.55771627784711        0.82576389781441
C           -1.54435834153455       -1.94107895178880        0.81063710114412
C           -0.50086874811406       -2.42840399006795        1.77175364717010
C           -0.01233118779189        1.55218717926258       -0.00105570371896
C            0.89673670945469        2.31463861427455       -0.80639660860165
C            1.86395467634631        1.61630680290110       -1.71118018185436
C            0.88403647447700        3.69149190833667       -0.77970861206253
C           -0.01611908546424        4.40676021867962        0.01123413748878
C           -0.03705574851462        5.90215280727239        0.01190102954722
C           -0.91791725620812        3.67966815602501        0.79369169662624
C           -0.92710111572980        2.30407630236776        0.80762114646542
C           -1.89209155561839        1.59402635909594        1.70621434128357
C            1.56634061681710       -1.92504217622852       -0.80787844906378
C            0.52693192104811       -2.43438042156361       -1.76206584350689
C            2.81450557200536       -2.51699152379491       -0.82669473043772
H            5.81003220621463       -2.45083783239006        0.80311454654583
H            5.06340013417271       -3.85930744509525        0.03287556502882
H            5.69890360446479       -2.54984671638183       -0.95753228253143
H            4.37598681771838       -0.70471819200476        1.54608535764579
H            2.07961472389209        1.63762339067239        1.44024727535347
H            2.95005528283062        0.69752759508118        2.65604068773554
H            1.19689661512511        0.52193617302741        2.46428043340097
H           -2.96330597015825        0.65219069068808       -2.66278010078113
H           -2.09595806073157        1.60200871093182       -1.45209786423880
H           -1.20804537809796        0.49230951572747       -2.47817069761029
H           -4.36535626652067       -0.77888650111966       -1.55840770170357
H           -5.02516909617101       -3.91372596429536        0.24505577912061
H           -5.78359985345716       -2.40031440506723        0.80117362966419
H           -5.66684354136851       -2.73911127974633       -0.94568115655919
H           -2.95798576731393       -3.37231213798107        1.51268377881569
H            0.20473443334302       -3.09540617295551        1.27386420106626
H            0.06548264889366       -1.59600436427183        2.17393297674986
H           -0.96288113646720       -2.97784467520380        2.58979651309955
H            1.36988064141258        0.81433446037957       -2.25712892023980
H            2.67081785082304        1.15792253427923       -1.13676632490509
H            2.30389573593167        2.31444329651015       -2.42088518728055
H            1.58350229885918        4.23923509704614       -1.39902984933936
H           -0.85863935347455        6.26587248667860       -0.61297671324747
H           -0.19412256281192        6.28540307272566        1.01667571083474
H            0.89120436712463        6.30561966032067       -0.38502096963873
H           -1.61904603105530        4.22148152479969        1.41355269490928
H           -2.34214741149281        2.28648686921705        2.41231870215439
H           -2.68998974507051        1.12718472946077        1.12541773870262
H           -1.39099434797339        0.79716215123049        2.25226160234975
H           -0.04733580118632       -1.61051135375132       -2.17512563364695
H           -0.16959676326794       -3.10247698099753       -1.26036444444527
H            0.99610870725616       -2.98477663477142       -2.57795108664961
H            3.00200268336891       -3.33484856477666       -1.50918402504083
