  58
 
 C          7.8170677322       -1.6557332996       -0.4189299323
 C          7.4839058216       -0.4643649932        0.2095111551
 C          6.1653054158       -0.0780904907        0.3317582712
 C          5.1312029201       -0.8814110537       -0.1689638242
 C          3.7284339878       -0.5339628908       -0.0640498464
 C          3.2584674944        0.6750917012        0.4394961943
 C          1.9066042737        1.0032741561        0.4074756004
 C          1.4827819806        2.3536293169        0.7551288714
 C          2.0457290168        3.0137839838        1.8544617409
 C          1.6555544920        4.2951160472        2.1871049679
 C          0.7031238285        4.9591681897        1.4283105973
 C          0.1508104350        4.3268762002        0.3243113350
 C          0.5359948409        3.0444877892       -0.0101749402
 C          0.9765322123        0.0065410138       -0.0451534107
 C         -0.3999119295        0.1197585891        0.0493245549
 C         -1.2536860998       -0.9092802247       -0.3970600540
 N         -2.6476317654       -0.7485101652       -0.2842652556
 C         -3.2741057707        0.3246074013       -0.9035113586
 C         -2.5883256997        1.1981810948       -1.7489086068
 C         -3.2378079109        2.2671046870       -2.3361591112
 C         -4.5892671828        2.4792217259       -2.1111479887
 C         -5.2997949258        1.5967056944       -1.3161031095
 C         -4.6552116999        0.5218155028       -0.7237099066
 O         -5.4182574786       -0.3350821902        0.0145904959
 C         -4.8006423808       -1.4121637148        0.5823740540
 C         -5.5963977960       -2.2805756225        1.3138449277
 C         -5.0302020140       -3.3684338507        1.9544446958
 C         -3.6604662020       -3.5712699847        1.8810718336
 C         -2.8606768509       -2.7131482233        1.1506630579
 C         -3.4157057133       -1.6321966093        0.4641962382
 C         -0.7091151309       -2.0732596412       -0.9302942720
 C          0.6571822401       -2.2335634960       -0.9885534417
 C          1.5391238502       -1.2294626869       -0.5206524473
 N          2.8370344530       -1.4588709799       -0.5029195032
 C          5.4877867902       -2.0847571906       -0.7995997650
 C          6.8064950091       -2.4629037714       -0.9227865041
 H          8.8517274977       -1.9515117786       -0.5127716298
 H          8.2644870182        0.1700496790        0.6064464011
 H          5.9410437193        0.8555327692        0.8257950931
 H          3.9634654442        1.4179583024        0.7780780957
 H          2.7728744656        2.4983827883        2.4660620231
 H          2.0939241613        4.7807035031        3.0479523761
 H          0.4000895378        5.9621583486        1.6908943718
 H         -0.5784505013        4.8426636925       -0.2845190730
 H          0.1325765287        2.5790663374       -0.8971255634
 H         -0.8340604109        0.9760799784        0.5441534467
 H         -1.5439973676        1.0229029668       -1.9492165074
 H         -2.6846867615        2.9317394699       -2.9812520805
 H         -5.0946539804        3.3151745868       -2.5676971358
 H         -6.3578300348        1.7154159153       -1.1454137521
 H         -6.6538300237       -2.0775190763        1.3709028992
 H         -5.6538776158       -4.0427784148        2.5191435671
 H         -3.2063073626       -4.4009172979        2.3997480284
 H         -1.7948328321       -2.8696808112        1.1160384162
 H         -1.3631231702       -2.8432553642       -1.3126699868
 H          1.0893117723       -3.1209681627       -1.4225644643
 H          4.6952263190       -2.7101850552       -1.1823882468
 H          7.0548933205       -3.3943142985       -1.4125682379
