  62
 
 C         -7.7765601864       -3.0155574392       -0.2288225456
 C         -7.9013318908       -1.8850072418       -1.0226172439
 C         -6.9495558067       -0.8865432340       -0.9716844110
 C         -5.8563241666       -1.0081384949       -0.1119868709
 N         -4.8892913850       -0.0022194758       -0.0553271183
 C         -5.1435638185        1.3532832857        0.0831819809
 C         -6.3539779009        2.0132835646        0.2312721776
 C         -6.3247813795        3.3896371513        0.3885303802
 C         -5.1265904042        4.0916100311        0.4092459162
 C         -3.9126449185        3.4307188065        0.2920438467
 C         -3.9181343272        2.0565033105        0.1348818191
 C         -2.8689679222        1.0694501522        0.0171652065
 C         -1.5079344604        1.1632702372       -0.0119367852
 C         -0.7008747134       -0.0259510653       -0.1413076516
 C          0.7015565542        0.0236725540       -0.1408196283
 C          1.4193735071        1.2707244687       -0.2892207537
 C          2.7756387610        1.3611426282       -0.2787563418
 C          3.5305114979        0.1880990889       -0.0880870095
 C          2.8695207810       -1.0715000990        0.0208607871
 C          1.5085061759       -1.1653460368       -0.0089991478
 C          3.9185797513       -2.0584001884        0.1408165871
 C          3.9129420452       -3.4323625723        0.3001273719
 C          5.1267898359       -4.0931224378        0.4190986806
 C          6.3250201344       -3.3912262949        0.3980080949
 C          6.3543602999       -2.0151197818        0.2386174065
 C          5.1440678624       -1.3552992776        0.0887660366
 N          4.8899193095        0.0000025571       -0.0520086063
 C          5.8570185743        1.0058275897       -0.1095738072
 C          5.7329448016        2.1458405272        0.6864397498
 C          6.6883399620        3.1399160773        0.6216532911
 C          7.7772854992        3.0131140626       -0.2282673828
 C          7.9026125794        1.8813317894       -1.0202121555
 C          6.9508221958        0.8829192999       -0.9683517204
 C         -1.4185756465       -1.2732354232       -0.2882929511
 C         -2.7748403467       -1.3636593221       -0.2785980933
 C         -3.5298466275       -0.1903353785       -0.0902379981
 C         -5.7327982369       -2.1469161201        0.6858786804
 C         -6.6881730395       -3.1410614369        0.6220101558
 H         -8.5221409738       -3.7945341569       -0.2740174855
 H         -8.7422912294       -1.7866650004       -1.6932192200
 H         -7.0287770872       -0.0204768934       -1.6115635513
 H         -7.2903375372        1.4766673961        0.2393627642
 H         -7.2556202425        3.9255403750        0.5016707345
 H         -5.1421235496        5.1643975266        0.5305609685
 H         -2.9813207133        3.9751425643        0.3292757163
 H         -1.0431595429        2.1286758636        0.0945812789
 H          0.8540166029        2.1699806455       -0.4694583760
 H          3.2681001537        2.3095701630       -0.4357215668
 H          1.0436413808       -2.1305695193        0.0987577317
 H          2.9815740444       -3.9767012757        0.3375813030
 H          5.1422109360       -5.1657256585        0.5420481091
 H          7.2557706022       -3.9269898566        0.5125358235
 H          7.2907368532       -1.4785240234        0.2464531791
 H          4.8979802837        2.2293854103        1.3658944667
 H          6.5888356815        4.0171814778        1.2437564479
 H          8.5228699695        3.7920504547       -0.2741988129
 H          8.7439922941        1.7819853143       -1.6901403880
 H          7.0304823859        0.0158717937       -1.6068504322
 H         -0.8530843151       -2.1727502181       -0.4667832680
 H         -3.2671782909       -2.3123286610       -0.4344644219
 H         -4.8982691371       -2.2294302991        1.3659907186
 H         -6.5890844511       -4.0173777751        1.2455139948
