  80
 
 C          7.9501316313       -4.8073267163        0.3981953414
 C          6.5644093584       -4.8243449061        0.3239578444
 C          5.8591505025       -3.6414838396        0.2322694416
 C          6.5342121818       -2.4194084376        0.2120263999
 C          5.7944512018       -1.1651710048        0.1130921939
 N          6.5053186569       -0.0225188221        0.0136370264
 C          5.7858061242        1.1153980907       -0.0805170316
 C          6.5154789305        2.3747798469       -0.1862639652
 C          5.8307841585        3.5915350404       -0.2075676187
 C          6.5263427004        4.7795782378       -0.3056719682
 C          7.9118802104        4.7732076403       -0.3852726646
 C          8.5993192540        3.5688684746       -0.3652994107
 C          7.9092094867        2.3768346578       -0.2661488505
 N          4.4773071329        1.1438622163       -0.0839788326
 C          3.8070099015       -0.0318381490        0.0243361157
 C          2.3885514748       -0.0361994402        0.0285164845
 C          1.6575900923        1.1669145756       -0.0939361055
 C          0.2870971449        1.1613622193       -0.0946004775
 C         -0.4118483045       -0.0444353095        0.0272841839
 N         -1.8356673215       -0.0462331519        0.0207916236
 C         -2.5102471031        0.3335226982        1.1620455554
 C         -1.7961693752        0.6646827788        2.3238283159
 C         -2.4563024018        1.0507785534        3.4685802485
 C         -3.8439265553        1.1142180475        3.4887386105
 C         -4.5574817678        0.7752885335        2.3543557932
 C         -3.9130307914        0.3812319523        1.1904693628
 C         -4.7384474513        0.0114262251       -0.0111319971
 C         -5.7737712403       -1.0418932986        0.3535970084
 C         -5.5562982853       -2.3240659888        0.8067133820
 C         -6.6589117224       -3.1223758387        1.0848323057
 C         -7.9471380154       -2.6397075835        0.9100982779
 C         -8.1684242709       -1.3495898639        0.4537321997
 C         -7.0733849210       -0.5480058776        0.1747520616
 C         -6.9869908214        0.8226632084       -0.3074252427
 C         -7.9735104402        1.7380052253       -0.6367782179
 C         -7.5915738560        2.9956991784       -1.0770280304
 C         -6.2515673632        3.3353291938       -1.1870577441
 C         -5.2571499037        2.4218322571       -0.8600081963
 C         -5.6345958684        1.1720787047       -0.4219700544
 C         -3.9029114543       -0.4360221449       -1.1789797921
 C         -4.5377206245       -0.8388225673       -2.3451942083
 C         -3.8146616731       -1.2267389079       -3.4575914461
 C         -2.4264369808       -1.2014479371       -3.4138815177
 C         -1.7756285605       -0.8065296116       -2.2667874508
 C         -2.4999415989       -0.4291521864       -1.1255448001
 C          0.2940429635       -1.2458912392        0.1529548479
 C          1.6646002699       -1.2433347004        0.1536835796
 N          4.4862467479       -1.2031458966        0.1271320416
 C          7.9281975565       -2.4107420236        0.2861246529
 C          8.6280421826       -3.5975934573        0.3790810490
 H          8.4994297376       -5.7344571328        0.4699567452
 H          6.0349138729       -5.7660586565        0.3378258219
 H          4.7813194242       -3.6388625758        0.1728506064
 H          4.7532453057        3.5806414752       -0.1439282217
 H          5.9893950968        5.7170537575       -0.3204317845
 H          8.4535604617        5.7043989194       -0.4620837522
 H          9.6779996265        3.5613959522       -0.4276827810
 H          8.4293589653        1.4311480953       -0.2506482563
 H          2.2085806072        2.0893603992       -0.1926726514
 H         -0.2665474746        2.0840598025       -0.1936924015
 H         -0.7190611767        0.6099594805        2.3147223149
 H         -1.8876859144        1.3019303095        4.3509959968
 H         -4.3628785930        1.4190044172        4.3841248654
 H         -5.6366549575        0.8121377710        2.3640146060
 H         -4.5539791778       -2.7027963323        0.9446337389
 H         -6.5096372347       -4.1309189584        1.4413945133
 H         -8.7892135277       -3.2786751441        1.1331945535
 H         -9.1732922356       -0.9781850875        0.3192882355
 H         -9.0181113152        1.4784062271       -0.5525445369
 H         -8.3475837401        3.7219750821       -1.3379818609
 H         -5.9762339588        4.3211549104       -1.5319262185
 H         -4.2142357003        2.6889825614       -0.9497936366
 H         -5.6170127967       -0.8424659556       -2.3747832740
 H         -4.3265393461       -1.5381387176       -4.3547921150
 H         -1.8498762200       -1.4891428187       -4.2798158680
 H         -0.6977679232       -0.7816402058       -2.2404884677
 H         -0.2544182810       -2.1716149762        0.2528511829
 H          2.2209403823       -2.1624039270        0.2539343447
 H          8.4408340193       -1.4609469490        0.2711814822
 H          9.7068758435       -3.5818443567        0.4370420388
