  91
 
 N        -10.2264088048        2.5912767009        0.9804050738
 C         -9.2906296365        2.0200517090        0.6315467231
 C         -8.1114012493        1.3489566358        0.2751698886
 C         -7.0786363165        1.9916276326       -0.4437121157
 C         -7.2364267125        3.3232048336       -1.0370926791
 C         -6.1519504659        4.1997989313       -1.0314328777
 C         -6.2714864852        5.4585999289       -1.5875740220
 C         -7.4669981665        5.8499644405       -2.1699146874
 C         -8.5414256301        4.9756345062       -2.1987029340
 C         -8.4310109719        3.7177022959       -1.6351188558
 N         -5.9018787127        1.4087871678       -0.6027612203
 C         -5.7111860737        0.1941580417       -0.0909677339
 C         -4.3993427558       -0.4160546712       -0.2603073000
 C         -3.3885304243        0.2629437839       -0.9445868026
 C         -2.1509681543       -0.3161874091       -1.1169821997
 C         -1.8934215436       -1.5904056571       -0.6062921888
 N         -0.6433016042       -2.1809626815       -0.7901201454
 C         -0.4127952927       -3.4678219334       -1.2476593911
 C         -1.3163305259       -4.4386332398       -1.6558824682
 C         -0.8106703086       -5.6441947171       -2.1062444559
 C          0.5604575688       -5.8825389461       -2.1642510406
 C          1.4653455013       -4.9091994013       -1.7881589841
 C          0.9803936040       -3.6909167485       -1.3313720210
 C          1.6174242322       -2.4775966485       -0.8960095990
 C          2.9444122000       -2.1057877761       -0.7456372854
 C          3.2441666203       -0.8398713716       -0.2577570636
 C          4.6441062648       -0.4144537893       -0.0969613739
 C          5.5800518700       -0.7010729328       -1.1009286999
 C          6.9010945523       -0.3150809038       -1.0049766100
 C          7.2971338743        0.3785944326        0.1302953393
 C          6.3756094229        0.6538013602        1.1670470275
 C          5.0503092367        0.2633740559        1.0452653725
 C          7.1137044231        1.3296256482        2.1979649672
 C          6.7649198010        1.8571916617        3.4347279016
 C          7.7405481419        2.4790546166        4.1884934019
 C          9.0475262680        2.5898836389        3.7173377081
 C          9.4187474836        2.0734099444        2.4905325647
 C          8.4479094380        1.4270847695        1.7379712461
 N          8.5439841804        0.8497186797        0.4875173018
 C          9.7091968218        0.7632959957       -0.2919897490
 C         10.8774261412        0.2369333556        0.2515672583
 C         12.0236923473        0.1603958510       -0.5186731559
 C         12.0124217914        0.5956234986       -1.8338540005
 C         10.8485877675        1.1139584867       -2.3779741240
 C          9.7004910670        1.2044238366       -1.6121761076
 C          2.2016734586        0.0295516912        0.0902020178
 C          0.8738249539       -0.3177832146       -0.0587510150
 C          0.5815379310       -1.5723132923       -0.5747632088
 C         -2.9005249271       -2.2692673966        0.0830337591
 C         -4.1386262426       -1.6892396648        0.2512274354
 N         -6.6470610915       -0.5063293479        0.5475077737
 C         -7.8373198277        0.0403349052        0.7322233738
 C         -8.8321894866       -0.7724002705        1.4395822245
 C        -10.1737249119       -0.7695153810        1.0647819800
 C        -11.0849653247       -1.5556644545        1.7458481169
 C        -10.6698433479       -2.3466815301        2.8049334759
 C         -9.3339604341       -2.3633896802        3.1744924802
 C         -8.4170926036       -1.5879300137        2.4915662441
 H         -5.2277218288        3.8804815048       -0.5743276591
 H         -5.4306511188        6.1357303802       -1.5689487567
 H         -7.5603730134        6.8331710490       -2.6061820044
 H         -9.4700942695        5.2714089579       -2.6632803750
 H         -9.2661431912        3.0337662458       -1.6805745932
 H         -3.6009023647        1.2399956639       -1.3492130526
 H         -1.3808158630        0.2004904980       -1.6691315005
 H         -2.3805974971       -4.2602895149       -1.6372881856
 H         -1.4952796232       -6.4169713568       -2.4242759567
 H          0.9164446850       -6.8384240178       -2.5193816162
 H          2.5286881543       -5.0853419971       -1.8511328276
 H          3.7349758939       -2.8024291916       -0.9805175765
 H          5.2491408320       -1.2256685220       -1.9854231019
 H          7.6035927650       -0.5535414496       -1.7893426980
 H          4.3490072862        0.4622779188        1.8419603327
 H          5.7490971930        1.7835336743        3.7940056771
 H          7.4906807739        2.8936926629        5.1542800795
 H          9.7863759374        3.0942236946        4.3232630868
 H         10.4301880717        2.1788329315        2.1278802545
 H         10.8767299955       -0.1196959916        1.2709730896
 H         12.9276458979       -0.2486486205       -0.0917294501
 H         12.9082368622        0.5309752522       -2.4331348988
 H         10.8358173521        1.4578603284       -3.4018659020
 H          8.7968076255        1.6267426418       -2.0261871128
 H          2.4478766328        1.0094430305        0.4722492050
 H          0.0917923628        0.3684362555        0.2286816909
 H         -2.6953201816       -3.2435000247        0.4997771968
 H         -4.9218039531       -2.2066015531        0.7826389258
 H        -10.5011508775       -0.1711324095        0.2268528604
 H        -12.1221618333       -1.5500913020        1.4459333840
 H        -11.3863636871       -2.9536532491        3.3377272509
 H         -9.0065396115       -2.9833282850        3.9956541757
 H         -7.3737673376       -1.5894151677        2.7684025178
