  57
 
 C          5.8290850613        0.9336736843        1.0164848077
 N          4.8525457562        1.4795264149        0.1044863829
 C          5.2555537631        2.5470710076       -0.7790487249
 C          3.5844425209        0.9789270433        0.0607684032
 C          2.6702023414        1.3818057957       -0.9283381679
 C          1.3896857390        0.8750128447       -0.9695169214
 C          0.9673011099       -0.0552099136       -0.0275532642
 N         -0.3472023929       -0.5689476211       -0.0599514325
 C         -0.7262121941       -1.8824127685       -0.0989668339
 C          0.1717399418       -3.0215456169       -0.2044375086
 C          1.3731455111       -2.9665527759       -0.9093434725
 C          2.1843954054       -4.0836635443       -0.9878393011
 C          1.8079343255       -5.2684742266       -0.3767879883
 C          0.6025766143       -5.3380144001        0.3042034260
 C         -0.2111438970       -4.2250520656        0.3891902649
 N         -2.0341219386       -1.9991728258       -0.0570802145
 C         -2.5429140718       -0.7375598073        0.0038860742
 C         -3.9790004278       -0.5201409986        0.1004132381
 C         -4.5146087236        0.5987918906        0.7367083496
 C         -5.8843581813        0.7688062929        0.8144219605
 C         -6.7397489890       -0.1753069271        0.2694956389
 C         -6.2161773173       -1.3002575308       -0.3477525109
 C         -4.8480148021       -1.4735586855       -0.4300766830
 C         -1.5014582885        0.1780238712       -0.0011004098
 C         -1.5029535591        1.6353754153        0.0155051740
 C         -2.3231874517        2.3385870973       -0.8669123530
 C         -2.3284772948        3.7203690510       -0.8664546013
 C         -1.5128094164        4.4206683876        0.0085347353
 C         -0.6972318070        3.7302556837        0.8895953529
 C         -0.6913520724        2.3474540386        0.8969944358
 C          1.8542001071       -0.4636738341        0.9621905917
 C          3.1356024270        0.0390828054        1.0058347547
 H          5.6140047288        1.2149985406        2.0532799029
 H          6.8153224330        1.3104379042        0.7571179117
 H          5.8560335399       -0.1566493166        0.9482517506
 H          5.3528478627        2.2011318759       -1.8142634290
 H          6.2171665604        2.9383679050       -0.4562579764
 H          4.5323374362        3.3654769116       -0.7502685014
 H          2.9600493253        2.0902002721       -1.6858169505
 H          0.7087129559        1.1959735654       -1.7448301693
 H          1.6677608221       -2.0558138654       -1.4089894387
 H          3.1141476803       -4.0290199113       -1.5355143088
 H          2.4469578722       -6.1371138130       -0.4385643748
 H          0.2977658680       -6.2626627994        0.7725559987
 H         -1.1540180056       -4.2635638811        0.9134724410
 H         -3.8552753938        1.3307673232        1.1800025609
 H         -6.2869528093        1.6417572055        1.3087527504
 H         -7.8096550572       -0.0376924852        0.3315704074
 H         -6.8784121313       -2.0447151643       -0.7667041660
 H         -4.4264338744       -2.3475554767       -0.9036843427
 H         -2.9543198604        1.7893751802       -1.5511575486
 H         -2.9683377788        4.2532087452       -1.5549406749
 H         -1.5155436593        5.5007805295        0.0047370601
 H         -0.0638220917        4.2703815664        1.5783833425
 H         -0.0632146973        1.8145548137        1.5962855794
 H          1.5295105716       -1.1811682171        1.7027427411
 H          3.7859329043       -0.2953421905        1.7962872318
