  66
 
 C          0.6170661587        0.0122679892       -0.0129977721
 C         -0.6171695886        0.0114021857       -0.0125608395
 C         -1.9858679574        0.0088610503       -0.0103271509
 C         -2.7235175657        0.0185900955        1.2124733006
 C         -4.0873534587        0.0040511358        1.2091662360
 C         -4.8023186621        0.0005232435       -0.0041065553
 N         -6.2111982404       -0.0047672911       -0.0003106980
 C         -6.9267671644        1.0344445297       -0.5860554712
 C         -6.2986488686        2.1468355959       -1.1452662857
 C         -7.0393177201        3.1603897133       -1.7265729384
 C         -8.4216851997        3.0949961825       -1.7517742612
 C         -9.0665242393        2.0174896619       -1.1655769237
 C         -8.3313416896        1.0001468968       -0.5810555240
 O         -9.0355248595       -0.0131293459        0.0140061067
 C         -8.3194535549       -1.0228054748        0.6009178888
 C         -9.0425573692       -2.0448830880        1.1921993479
 C         -8.3853372339       -3.1189851726        1.7708717111
 C         -7.0029448103       -3.1762825455        1.7311810423
 C         -6.2743187367       -2.1579226260        1.1431598600
 C         -6.9147378339       -1.0487594708        0.5914852318
 C         -4.0927872171        0.0016828557       -1.2205132000
 C         -2.7288251540       -0.0044757092       -1.2298335186
 C          1.9857766035        0.0118302691       -0.0117177389
 C          2.7278859982        0.0116239435       -1.2318060519
 C          4.0918183995       -0.0006292462       -1.2233444431
 C          4.8022068286        0.0078158743       -0.0074920977
 N          6.2111210898        0.0048007456       -0.0046521109
 C          6.9212880462        1.0499469977        0.5770220160
 C          6.2878767614        2.1687898374        1.1171193038
 C          7.0229490417        3.1882168079        1.6951841393
 C          8.4049184775        3.1221756412        1.7362223103
 C          9.0553470786        2.0379708154        1.1688200570
 C          8.3257886863        1.0147712824        0.5875187497
 O          9.0354231272       -0.0056221967        0.0113886307
 C          8.3247930364       -1.0198319743       -0.5743852318
 C          9.0535044417       -2.0476193731       -1.1486623659
 C          8.4017979457       -3.1261910854       -1.7252179148
 C          7.0190096857       -3.1819373464       -1.7005486107
 C          6.2847903807       -2.1580387720       -1.1292731103
 C          6.9200267536       -1.0447086906       -0.5800931312
 C          4.0881578904        0.0192603294        1.2062496571
 C          2.7242594430        0.0109691840        1.2106145053
 H         -2.1765798649        0.0464015428        2.1438999450
 H         -4.6371493302        0.0251172751        2.1401353979
 H         -5.2233673335        2.2166054664       -1.1125875039
 H         -6.5272629754        4.0074063737       -2.1564526333
 H         -9.0004519243        3.8821545189       -2.2083189913
 H        -10.1425444995        1.9477203642       -1.1435660222
 H        -10.1191399516       -1.9814512360        1.1814464729
 H         -8.9547096943       -3.9098384887        2.2328081207
 H         -6.4814411954       -4.0205718676        2.1549689677
 H         -5.1990260452       -2.2213018807        1.0994979801
 H         -4.6464762578       -0.0228757542       -2.1490822775
 H         -2.1858315583       -0.0288679324       -2.1636717889
 H          2.1843550954        0.0301653304       -2.1654622379
 H          4.6449729738        0.0131512417       -2.1524516178
 H          5.2130249157        2.2386746876        1.0721919685
 H          6.5069346031        4.0403310996        2.1099644560
 H          8.9792897081        3.9138854463        2.1904257566
 H         10.1314894147        1.9672726437        1.1594010665
 H         10.1299523198       -1.9849451647       -1.1264491331
 H          8.9755607090       -3.9214542630       -2.1739436083
 H          6.5015089355       -4.0294581982       -2.1228204294
 H          5.2090447955       -2.2202772862       -1.0968264654
 H          4.6385434374        0.0045843631        2.1369906133
 H          2.1778812965       -0.0056271292        2.1426342328
