  65
 
 C         -6.2493714650       -0.7666283829       -0.0001010780
 C         -5.3296820599        0.4680889527        0.0000779145
 C         -6.1696853290        1.7581598456        0.0002948653
 C         -4.4812756182        0.4413415901       -1.2575021588
 C         -5.0977812351        0.4643316491       -2.5008731185
 C         -4.3751351026        0.4419229716       -3.6795484537
 C         -2.9940310360        0.3951001809       -3.6263202791
 C         -2.3549808185        0.3709352428       -2.4044877226
 C         -3.0844542444        0.3937159111       -1.2126793958
 N         -2.4139768956        0.3660983637        0.0000043791
 C         -0.9937967738        0.3313151018       -0.0000204017
 C         -0.2681293240        1.5232071860        0.0000961139
 C          1.1047150493        1.4718682393        0.0000882299
 C          1.7761788370        0.2448903024       -0.0000335031
 C          1.0548421881       -0.9663655783       -0.0001396794
 C         -0.3406487177       -0.8875982390       -0.0001361819
 C          1.7642159360       -2.2388038706       -0.0002273669
 C          1.0994357618       -3.4698484689       -0.0002792505
 C          1.7936104382       -4.6608568668       -0.0003524017
 C          3.1837421488       -4.6681043188       -0.0003678695
 C          3.8652505267       -3.4732843280       -0.0003123399
 C          3.1735716161       -2.2583657371       -0.0002439537
 C          3.9190597977       -1.0206095640       -0.0001623383
 N          5.2362496273       -1.0655050196       -0.0001843375
 C          5.9078956463        0.0947241297       -0.0000683887
 C          7.3169388635        0.0836285331       -0.0000552975
 C          8.0104282868        1.2697223868        0.0000979365
 C          9.4259995224        1.2676345418        0.0000511620
 N         10.5712846159        1.2509243729        0.0002307297
 C          7.3138304536        2.5162913618        0.0002292972
 C          8.0539392238        3.7230069403        0.0004276302
 N          8.6404200965        4.7069143419        0.0004704208
 C          5.9402884195        2.5470565261        0.0002067215
 C          5.2116356273        1.3409703694        0.0000637090
 N          3.8715745434        1.3768035861        0.0000662381
 C          3.2204047072        0.2308312178       -0.0000412523
 C         -3.0844066901        0.3933280255        1.2127238952
 C         -2.3548867837        0.3701680126        2.4044967000
 C         -2.9938890902        0.3939397668        3.6263618799
 C         -4.3749908261        0.4407446597        3.6796588472
 C         -5.0976828484        0.4635323325        2.5010189013
 C         -4.4812263606        0.4409433793        1.2576163153
 H         -5.6496992706       -1.6750837818       -0.0002329827
 H         -6.8859553665       -0.7762640550       -0.8804591673
 H         -6.8859571068       -0.7765193570        0.8802529022
 H         -6.8045690440        1.8082769637       -0.8798861266
 H         -6.8044813062        1.8080456877        0.8805522285
 H         -5.5138367660        2.6268396454        0.0003761699
 H         -6.1751207316        0.5010814018       -2.5582684130
 H         -4.8872673680        0.4613171552       -4.6293188165
 H         -2.4103408744        0.3774794566       -4.5345895098
 H         -1.2764689254        0.3352086706       -2.3692794278
 H         -0.7935208289        2.4659232530        0.0001954104
 H          1.6979403076        2.3724533191        0.0001820092
 H         -0.9479363150       -1.7784388425       -0.0002175001
 H          0.0221589607       -3.5053027131       -0.0002555493
 H          1.2504415669       -5.5942207744       -0.0003961454
 H          3.7216338088       -5.6038094187       -0.0004085886
 H          4.9432612184       -3.4408600023       -0.0003051809
 H          7.8313897941       -0.8651433402       -0.0001608917
 H          5.4014879620        3.4822252546        0.0003087416
 H         -1.2763762986        0.3344558119        2.3692382830
 H         -2.4101618059        0.3760398924        4.5346017000
 H         -4.8870845038        0.4598515903        4.6294559129
 H         -6.1750198214        0.5002745349        2.5584678242
