  45
 
 O         -3.9791464495        1.1998741851        2.1234202918
 S         -3.5633667355        1.2819558675        0.7329842175
 O         -3.9147892342        2.4938784243        0.0117437795
 C         -4.2291021381       -0.1236000730       -0.1440723178
 C         -4.4911056962       -1.2958745376        0.5495218742
 C         -4.9046598672       -2.4167113352       -0.1459227130
 C         -5.0427705496       -2.3659835180       -1.5271197519
 C         -4.7732044946       -1.1886857802       -2.2136812390
 C         -4.3597324728       -0.0645983572       -1.5237020475
 C         -1.8284043735        1.0219047257        0.6252656871
 C         -1.1928386127        0.1652046311        1.5480289643
 C          0.1175294011       -0.1695863539        1.3845903289
 C          0.8633201790        0.3524390292        0.2862362051
 N          2.1907480883        0.0304743290        0.1270685383
 C          2.7383172949       -1.2293442886        0.2851796359
 C          2.1073713438       -2.4382249907        0.5455251650
 C          2.8940767303       -3.5795692094        0.6319899473
 C          4.2761120513       -3.5137435466        0.4472671857
 C          4.9117100041       -2.3168236924        0.1465843718
 C          4.1453798882       -1.1625948646        0.0462507105
 C          4.4389553683        0.1980893528       -0.2821534644
 C          5.6043296483        0.8808801092       -0.6060300808
 C          5.5351617933        2.2500775207       -0.8238693240
 C          4.3311282637        2.9469107494       -0.7092594250
 C          3.1508957447        2.2853637619       -0.3954158513
 C          3.2019687641        0.9100835368       -0.2135409337
 C          0.2084396316        1.2172361579       -0.6394496455
 C         -1.1103743061        1.5205968116       -0.4815031834
 H         -4.3861397959       -1.2965876018        1.6233831922
 H         -5.1220738047       -3.3302427521        0.3871599285
 H         -5.3644585048       -3.2427827326       -2.0682949836
 H         -4.8881643209       -1.1492400720       -3.2865837782
 H         -4.1546213156        0.8687873295       -2.0245637049
 H         -1.7660615336       -0.1768026694        2.3949206946
 H          0.6310589853       -0.7612683567        2.1266475619
 H          1.0359399438       -2.4991427189        0.6541878401
 H          2.4276988221       -4.5308597044        0.8333326966
 H          4.8595080691       -4.4192358526        0.5229206855
 H          5.9780740312       -2.2835566568       -0.0129336063
 H          6.5450462566        0.3578994589       -0.6784715834
 H          6.4347394008        2.7939132189       -1.0707925584
 H          4.3172678265        4.0155158490       -0.8542543225
 H          2.2298585306        2.8333377313       -0.2738302557
 H          0.7516266224        1.5591222765       -1.5067939808
 H         -1.6363592213        2.1523244328       -1.1794622634
