  146
 
 C         -2.8382450192       -6.8493098072        1.2435576363
 C         -1.5390526911       -7.1640834296        0.4868108975
 C         -0.7583197703       -8.2635365144        1.2223749208
 C         -1.9092308797       -7.6913234168       -0.9025912524
 C         -0.6895112628       -5.9043143970        0.4278886496
 C         -0.2567299857       -5.3119656861        1.6137977122
 C          0.5133937106       -4.1661638466        1.6133575728
 C          0.8750633676       -3.5734869542        0.4094652746
 N          1.6493833689       -2.3784531979        0.3806971057
 C          3.0159518268       -2.4648192703        0.5631271309
 C          3.5857601497       -3.7091658584        0.8452965072
 C          4.9355240288       -3.8273755688        1.1205675497
 C          5.7638762764       -2.7012874437        1.1487800949
 C          7.2291850768       -2.8678975781        1.5168841387
 C          7.8951177275       -3.8180350277        0.5094182170
 C          7.3239790608       -3.4628861787        2.9304052206
 C          8.0015524621       -1.5457767368        1.5041224796
 C          5.1960717663       -1.4798940242        0.8182946511
 C          3.8475291945       -1.3123117802        0.4634739206
 B          3.2052429408        0.0105278403        0.0109396597
 C          3.8416301686        1.3375257748       -0.4377953890
 C          5.1910216367        1.5137600778       -0.7850761645
 C          5.7530041750        2.7389212713       -1.1115262242
 C          7.2191907875        2.9148516459       -1.4717547141
 C          7.9997585687        1.5975979648       -1.4551361101
 C          7.3175205927        3.5106127549       -2.8847008918
 C          7.8739735908        3.8690373309       -0.4608310828
 C          4.9175235477        3.8598192450       -1.0868096379
 C          3.5670536344        3.7330165158       -0.8189319425
 C          3.0033530856        2.4848169424       -0.5415289601
 N          1.6362217518        2.3894284136       -0.3679614130
 C          0.8545701962        3.5795353297       -0.3991870074
 C          0.4991930287        4.1743348475       -1.6039416101
 C         -0.2766612297        5.3162462148       -1.6066840750
 C         -0.7213294609        5.9027799501       -0.4222604853
 C         -1.5752641538        7.1594588302       -0.4836353044
 C         -0.7928666138        8.2642003026       -1.2094779357
 C         -2.8673850420        6.8424657616       -1.2514458158
 C         -1.9580298953        7.6807590896        0.9045978482
 C         -0.3565839029        5.2933089751        0.7729339877
 C          0.4191206583        4.1473739573        0.7891490434
 C          0.9545541319        1.1928379339       -0.1913172241
 C         -0.4376182144        1.1849708345       -0.2291119879
 C         -1.1391983544       -0.0041838759       -0.0068683068
 N         -2.5382453678       -0.0096151942       -0.0144225201
 C         -3.3433183399       -0.9158284140       -0.6775103779
 C         -3.0099943122       -1.9758902503       -1.5070709983
 C         -4.0333718087       -2.7111294434       -2.0700633625
 C         -5.3897071741       -2.4283775119       -1.8444415423
 C         -6.4458657693       -3.2926052213       -2.5210433160
 C         -7.8736259366       -2.8654136811       -2.1657433996
 C         -6.2829709901       -3.1841217820       -4.0448785542
 C         -6.2658159975       -4.7538021041       -2.0839774132
 C         -5.7118472068       -1.3579415751       -1.0278133909
 C         -4.7019029447       -0.5974129671       -0.4490800992
 C         -4.7113783716        0.5594513040        0.3972287528
 C         -5.7339620121        1.3113559571        0.9649498158
 C         -5.4297610490        2.3848723036        1.7844003740
 C         -6.5003354746        3.2405082613        2.4491782040
 C         -7.9205802985        2.8006811127        2.0794704041
 C         -6.3521635844        3.1348870125        3.9747038598
 C         -6.3281443259        4.7027612324        2.0124608822
 C         -4.0783846708        2.6795044148        2.0241373526
 C         -3.0427551020        1.9529793516        1.4723582660
 C         -3.3580751537        0.8896910520        0.6398950048
 C         -0.4313895511       -1.1883305460        0.2225059953
 C          0.9610853287       -1.1866699263        0.1975641943
 C          1.6928326782        0.0055716795        0.0059953742
 C          0.4525081058       -4.1477989186       -0.7804006246
 C         -0.3177800011       -5.2974223814       -0.7664580524
 H         -2.6380234675       -6.5480626392        2.2682144458
 H         -3.3749364211       -6.0412903722        0.7499089025
 H         -3.4799870154       -7.7274462304        1.2659759715
 H         -0.5248536046       -7.9724037681        2.2427161943
 H          0.1758983901       -8.4726568640        0.7045323489
 H         -1.3458873134       -9.1784548082        1.2561995455
 H         -2.5116662173       -8.5914720722       -0.7988990002
 H         -1.0202066768       -7.9469687844       -1.4748748846
 H         -2.4932635086       -6.9597499943       -1.4555055682
 H         -0.5249336031       -5.7461639897        2.5646424295
 H          0.8370562590       -3.7212818740        2.5432920532
 H          2.9725167859       -4.5976991505        0.8614474983
 H          5.3299579820       -4.8093579696        1.3328313572
 H          8.9521066810       -3.9310507451        0.7428581745
 H          7.8038803000       -3.4188964410       -0.4991765227
 H          7.4352825044       -4.8024421487        0.5286543703
 H          8.3669034819       -3.5915568449        3.2138822006
 H          6.8332982142       -4.4308752173        2.9867056685
 H          6.8495594540       -2.7979952803        3.6499128291
 H          8.0003563780       -1.1068974668        0.5093790165
 H          7.5756602133       -0.8352647555        2.2092353282
 H          9.0362204401       -1.7264553525        1.7904049567
 H          5.8018229129       -0.5913016032        0.8378076164
 H          5.8023854066        0.6289667851       -0.8019063745
 H          9.0348843071        1.7848031704       -1.7355363594
 H          7.5822262841        0.8847613578       -2.1628908884
 H          7.9956822584        1.1583072122       -0.4605825897
 H          6.8504691812        2.8430748584       -3.6065853641
 H          6.8214488110        4.4757249447       -2.9432536361
 H          8.3610507161        3.6453940445       -3.1630490044
 H          7.7808773094        3.4688467095        0.5471676388
 H          8.9312248790        3.9893495037       -0.6893855593
 H          7.4075604216        4.8503038141       -0.4817544015
 H          5.3070519262        4.8444218274       -1.2959840654
 H          2.9484833175        4.6177784456       -0.8376003830
 H          0.8324824778        3.7342458926       -2.5327548696
 H         -0.5395692338        5.7522266319       -2.5581969035
 H         -0.5508193122        7.9774965053       -2.2290722530
 H         -1.3832348249        9.1772723902       -1.2444442238
 H          0.1367537295        8.4746109636       -0.6839385877
 H         -3.4054027580        6.0315264285       -0.7640869770
 H         -2.6580506119        6.5444149786       -2.2752164927
 H         -3.5117749885        7.7185856178       -1.2768060972
 H         -1.0743335711        7.9377881167        1.4844637454
 H         -2.5629860494        8.5790245716        0.7992349159
 H         -2.5435352422        6.9452579908        1.4507045783
 H         -0.6724841011        5.7030205253        1.7178927933
 H          0.6940781703        3.6870921028        1.7274589368
 H         -0.9947600561        2.0845287186       -0.4373350550
 H         -1.9798070072       -2.2170903802       -1.7228535485
 H         -3.7644011307       -3.5325291252       -2.7170870831
 H         -8.0487939913       -2.9390371812       -1.0946056623
 H         -8.5835583698       -3.5195471189       -2.6687003130
 H         -8.0693719863       -1.8457784451       -2.4901703225
 H         -6.3886434134       -2.1479148529       -4.3608861976
 H         -5.3072234125       -3.5389601970       -4.3654682962
 H         -7.0439621471       -3.7783980537       -4.5469604346
 H         -5.2933811581       -5.1371522349       -2.3792439587
 H         -6.3535771974       -4.8359334550       -1.0022845751
 H         -7.0303603694       -5.3790096316       -2.5410512265
 H         -6.7358949143       -1.0877819260       -0.8294108590
 H         -6.7534721707        1.0322177270        0.7558573232
 H         -8.1107284468        1.7795849299        2.4026164852
 H         -8.0851537841        2.8720357020        1.0065045010
 H         -8.6415476231        3.4488498899        2.5744251695
 H         -5.3822970229        3.4972417416        4.3045904725
 H         -7.1224988927        3.7241089508        4.4683998837
 H         -6.4533845047        2.0982679010        4.2908134335
 H         -5.3620420546        5.0944983236        2.3173485488
 H         -7.1025459168        5.3219778400        2.4609980385
 H         -6.4053740793        4.7830921553        0.9298255221
 H         -3.8234943875        3.5035947515        2.6734262199
 H         -2.0170397081        2.2033397771        1.6987450683
 H         -0.9843357806       -2.0916525150        0.4255018799
 H          0.7328492377       -3.6893883932       -1.7180258978
 H         -0.6241249657       -5.7118904907       -1.7124822332
