50
 xtb: 6.7.1 (edcfbbe)
C           -3.40248869627940        1.85798308748390       -1.26327132875943
C           -2.84191379526759        1.17937284416623       -0.00005219307149
C           -3.40566230388563        1.85832259460092        1.26171064414418
C           -3.28416829452284       -0.27073423524534        0.00042918611447
C           -4.62932923695089       -0.60907509508374       -0.00953772489148
C           -5.04743652179695       -1.92841416835822       -0.00645094981074
C           -4.10904134696045       -2.94625881345463        0.00711439783073
C           -2.76574617208194       -2.63557480532174        0.01974767797403
C           -2.34654007499967       -1.30423610597666        0.01745147976383
N           -1.00052545079160       -1.03513451566355        0.03301440194930
C           -0.45453990749865        0.23118268175228        0.01277011489472
C           -1.32721152860524        1.32801267570258        0.00178547989062
C           -0.78140382137164        2.60232328838902       -0.00567412708309
C            0.58005401838181        2.79884361491327       -0.00800052077294
C            1.44339139381374        1.70613444998441       -0.00813070271335
C            0.94404853480520        0.40359959652542        0.00530277300557
C            1.89425089485497       -0.79005004681942       -0.00388149312933
C            1.66115268916793       -1.66751250453262        1.25844204595197
C            1.71376496610057       -1.56245315513779       -1.33294074115742
C            3.35930208620273       -0.37545899100525        0.01107894759003
C            4.35052528498186       -1.34634285353496        0.03713952270187
C            5.69344635560845       -1.01214679445128        0.02817498579799
C            6.07010351467336        0.32037344538039        0.00160751704529
C            5.10344447864700        1.30368376096863       -0.01141207472293
C            3.75023641351782        0.96412143094857       -0.00955736380989
N            2.79796306949898        1.94948468563291       -0.02494335676000
H           -4.48734027976350        1.78334238201711       -1.29170047553152
H           -3.00181179129067        1.37478484564185       -2.15120293793878
H           -3.13387679602403        2.90999127737573       -1.29296722361959
H           -3.00336391247817        1.37505177831906        2.15138747429415
H           -4.48822553552432        1.78330582024871        1.29064214237032
H           -3.13463491715893        2.91009298104049        1.29271947055671
H           -5.37714846282842        0.16985065226456       -0.00541190086619
H           -6.10181356290958       -2.15994550879515       -0.00406706973513
H           -4.42346122016265       -3.97946431601416        0.00272770110505
H           -2.02194229964682       -3.42095947230594        0.00974957283956
H           -0.38565351048168       -1.83030053306536        0.02720633529887
H           -1.42612302247978        3.46723778297570       -0.00262984099662
H            0.99003107249631        3.79843678033625       -0.00390100732188
H            1.87272191407155       -2.69035073231764        1.10522753181247
H            0.67706222518397       -1.51925150307907        1.69672939043719
H            2.37705736838155       -1.28851916218095        2.05333924894103
H            2.26372260839347       -1.11843323789828       -2.10708599611658
H            2.06727443261035       -2.61985536757434       -1.19770871967395
H            0.65659161173669       -1.63743478001230       -1.63272425069059
H            4.07372236763814       -2.38946048383710        0.02184295963369
H            6.44231057772440       -1.78955953529460        0.01314532771930
H            7.11519673732906        0.59227955092141       -0.00126423710393
H            5.38210643376275        2.34839969516118       -0.00723477638930
H            3.10184212638579        2.91060516361257       -0.00837827561408
