  78
 
 C          3.2843567019        0.2719892796        2.2813327120
 C          2.6668109170        0.4067178662        0.8839929280
 C          2.5322011920        1.8961608774        0.5284964129
 C          1.2849765832       -0.2760042243        0.9169446113
 C          0.5842688378       -0.3656486554       -0.4483167474
 C         -0.6848048072       -1.1704251661       -0.3108543598
 C         -0.6293766780       -2.5580595407       -0.2138999289
 C         -1.7869376962       -3.3047113376       -0.0720532558
 C         -3.0176183281       -2.6779914151       -0.0236572788
 C         -3.0904461592       -1.2893608282       -0.1161296166
 C         -4.3864908845       -0.6124383132       -0.0722224481
 N         -4.4033952174        0.7128332694       -0.1939981291
 C         -5.6030550380        1.2870720351       -0.1577630769
 C         -5.6714172329        2.7431644758       -0.2894542530
 C         -6.9031360324        3.3953651057       -0.2521918389
 C         -6.9639379540        4.7700226348       -0.3783245021
 C         -5.7998663218        5.5056886450       -0.5418865849
 C         -4.5716461187        4.8631123523       -0.5787862655
 C         -4.5046933920        3.4887576039       -0.4540001938
 N         -6.7441193439        0.6180969458       -0.0111334740
 C         -6.6343495415       -0.7027561659        0.1089991698
 C         -7.8620118279       -1.4819118840        0.2757027527
 C         -9.1053029495       -0.8526963442        0.2273649858
 C        -10.2624689885       -1.5908912089        0.3857333761
 C        -10.1908590062       -2.9599252974        0.5945107025
 C         -8.9573397310       -3.5916191711        0.6436635275
 C         -7.7967443546       -2.8589083615        0.4849511916
 N         -5.4770361776       -1.3587213076        0.0848279092
 C         -1.9200663301       -0.5461844962       -0.2582632927
 C          1.5018582014       -0.9639825891       -1.4683766479
 C          2.8377703184       -0.9008619411       -1.2929660816
 N          3.8205721134       -1.3913201209       -2.1269307978
 C          5.0607628619       -1.0789362347       -1.6272871256
 C          6.2882803429       -1.3575826003       -2.1390619607
 C          7.4159801612       -0.8986046586       -1.4117536086
 C          7.2207105121       -0.1589190690       -0.1684367370
 C          5.9925426381        0.1120536562        0.3330953196
 C          4.8510857495       -0.3504003420       -0.3858112572
 C          3.4946121221       -0.2570848105       -0.1767293369
 C          8.5479611694        0.1747075662        0.3262581650
 C          8.9737739444        0.8546011403        1.4469872111
 C         10.3412227472        1.0161622733        1.6507134595
 C         11.2590912527        0.5043972070        0.7462239081
 C         10.8432653726       -0.1835665876       -0.3859764690
 C          9.4842600333       -0.3528078215       -0.6006739549
 C          8.7622339526       -1.0068579305       -1.6581057778
 H          2.5507051885        0.5501644349        3.0352331261
 H          4.1429929783        0.9255557943        2.3968125327
 H          3.5983873123       -0.7527126303        2.4664529421
 H          3.5091617962        2.3736928887        0.5472828999
 H          1.8858081390        2.3945706606        1.2474414313
 H          2.1155456579        2.0223907034       -0.4674389380
 H          1.4163345135       -1.2910655795        1.2992694715
 H          0.6361669142        0.2603412824        1.6118750259
 H          0.3050414140        0.6461880391       -0.7711162033
 H          0.3301055205       -3.0532954633       -0.2551708172
 H         -1.7287560671       -4.3808230090       -0.0005115438
 H         -3.9299542554       -3.2432705761        0.0823415941
 H         -7.7984980818        2.8076628405       -0.1226660248
 H         -7.9204878265        5.2705910077       -0.3493901290
 H         -5.8496871170        6.5800423052       -0.6403080332
 H         -3.6652387203        5.4363320371       -0.7058990244
 H         -3.5580829143        2.9721439489       -0.4811110983
 H         -9.1420017307        0.2129847478        0.0630392816
 H        -11.2233383952       -1.0992906352        0.3471261542
 H        -11.0966755201       -3.5347139695        0.7187709717
 H         -8.9022774012       -4.6578256485        0.8067681914
 H         -6.8283821510       -3.3332795393        0.5215482976
 H         -1.9994144830        0.5279473398       -0.3299395580
 H          1.0652132116       -1.4201559916       -2.3435815213
 H          3.6517903084       -1.8749663400       -2.9913304293
 H          6.4157853979       -1.8999806448       -3.0643087117
 H          5.8753745727        0.6671108958        1.2494087551
 H          8.2665455115        1.2576015753        2.1581002450
 H         10.6921116542        1.5466964059        2.5245367816
 H         12.3162763624        0.6435431317        0.9260866460
 H         11.5670868377       -0.5794306828       -1.0849058271
 H          9.2208857588       -1.4964748400       -2.4991728296
