  105
 
 C          2.0384911605       -9.3316729044       -2.1050322599
 C          2.6170389840       -9.5032739687       -0.8578131363
 C          3.0820856714       -8.4134110127       -0.1462935612
 C          2.9788169920       -7.1307280679       -0.6821908918
 N          3.4651546976       -6.0236024346        0.0327777999
 C          4.6712287843       -6.1509151033        0.7427480415
 C          4.8080121514       -5.5854890819        2.0096340980
 C          5.9942256550       -5.7204804418        2.7058286219
 C          7.0535194863       -6.4250355875        2.1564162924
 C          6.9187864356       -6.9947471991        0.9005696515
 C          5.7389409854       -6.8587171936        0.1935425445
 C          2.7716001691       -4.8221315296        0.0325966193
 C          1.3735536722       -4.8037540791       -0.0491669662
 C          0.6884988945       -3.6111065997       -0.0516785131
 C          1.3714383962       -2.3953588170        0.0211398865
 C          0.6444124251       -1.1325882060        0.0103170427
 N         -0.6870146116       -1.1780437705        0.0329975003
 C         -1.3088155005        0.0005825749        0.0367754251
 C         -2.7648342011        0.0045292016        0.0836696491
 C         -3.4757369532        1.2045051840        0.0145318120
 C         -4.8502116848        1.2117437023        0.0612360458
 C         -5.5654876929        0.0134237654        0.1812271679
 N         -6.9515878784        0.0178790453        0.2301171496
 C         -7.6437686906        1.0961935041        0.8066864263
 C         -8.8231346618        1.5628891733        0.2284743332
 C         -9.5108565212        2.6142176707        0.8047094334
 C         -9.0322981110        3.2181729552        1.9562194769
 C         -7.8602047226        2.7573856034        2.5341865450
 C         -7.1700519388        1.7012288425        1.9700606482
 C         -7.6885181995       -1.0581445719       -0.2936106975
 C         -8.8195423925       -1.5255612064        0.3735312967
 C         -9.5513704092       -2.5743604834       -0.1507210702
 C         -9.1649473010       -3.1748562058       -1.3380534676
 C         -8.0408905956       -2.7134836678       -2.0041990193
 C         -7.3077414227       -1.6596465224       -1.4923273474
 C         -4.8512418054       -1.1895010497        0.2503306496
 C         -3.4768565490       -1.1910547350        0.2004454765
 N         -0.6827226546        1.1762565314        0.0003283220
 C          0.6482472783        1.1252332634       -0.0358069945
 C          1.3787355029        2.3842332835       -0.0922184313
 C          0.7057472683        3.6037242301        0.0072943714
 C          1.3937892371        4.7934034066       -0.0450063698
 C          2.7852101168        4.8056205553       -0.2064070296
 N          3.4818977193        6.0031262088       -0.2629391713
 C          2.8834230014        7.1576697729       -0.7951924622
 C          2.0813133286        7.0804778962       -1.9329335514
 C          1.5000494670        8.2221328172       -2.4514556974
 C          1.7171939063        9.4533754020       -1.8538727431
 C          2.5217596502        9.5356818681       -0.7288735491
 C          3.1001036061        8.3982887484       -0.1977680514
 C          4.8008418971        6.0859735476        0.2160340915
 C          5.7535588680        6.8286873697       -0.4791645640
 C          7.0473646694        6.9194710093       -0.0014544243
 C          7.4104240244        6.2697029771        1.1672061600
 C          6.4657582070        5.5315546635        1.8621487033
 C          5.1675260779        5.4415585799        1.3965583278
 C          3.4586117147        3.5815440952       -0.3088759217
 C          2.7661892162        2.3948397054       -0.2498789407
 N          1.3537030835       -0.0051749604       -0.0224277396
 C          2.7652137016       -2.4124318613        0.1044377635
 C          3.4550208010       -3.6022573413        0.1134418145
 C          2.4034604946       -6.9632476578       -1.9410800926
 C          1.9339876192       -8.0582217339       -2.6414157847
 H          1.6730577603      -10.1845847808       -2.6568240911
 H          2.7005209608      -10.4920254535       -0.4310824443
 H          3.5270603523       -8.5476618385        0.8287602614
 H          3.9785976206       -5.0452756032        2.4425233638
 H          6.0877145895       -5.2795249293        3.6875218671
 H          7.9775379949       -6.5306788231        2.7046347176
 H          7.7403966529       -7.5432117918        0.4638008370
 H          5.6365352939       -7.2975019090       -0.7882134647
 H          0.8333866033       -5.7375466357       -0.0999607716
 H         -0.3889921871       -3.5969859260       -0.1056252106
 H         -2.9248937818        2.1264936421       -0.0883875742
 H         -5.3880587205        2.1458042415       -0.0062333736
 H         -9.1937137181        1.0971609482       -0.6729424103
 H        -10.4224404315        2.9685083048        0.3463081750
 H         -9.5702085046        4.0412065891        2.4019941342
 H         -7.4835072597        3.2170495846        3.4362457682
 H         -6.2618221877        1.3360772434        2.4273538104
 H         -9.1178197663       -1.0624980053        1.3027526167
 H        -10.4247761491       -2.9294902648        0.3761965592
 H         -9.7369918145       -3.9959565112       -1.7429531417
 H         -7.7362143117       -3.1708826736       -2.9341896919
 H         -6.4377097272       -1.2936485057       -2.0179748991
 H         -5.3888205490       -2.1203847068        0.3541718331
 H         -2.9263058231       -2.1167308972        0.2644111834
 H         -0.3649318056        3.5942998806        0.1404093468
 H          0.8624851826        5.7288838209        0.0485742812
 H          1.9205822686        6.1226546303       -2.4062220251
 H          0.8805854371        8.1496344538       -3.3334755936
 H          1.2638506084       10.3432871859       -2.2637285580
 H          2.6944341337       10.4910571808       -0.2554201641
 H          3.7218211493        8.4623555206        0.6832651131
 H          5.4723939751        7.3300466444       -1.3937413488
 H          7.7780640532        7.4952195974       -0.5502652053
 H          8.4228575106        6.3395454173        1.5353380464
 H          6.7381468529        5.0283341866        2.7783703841
 H          4.4288247101        4.8741661766        1.9440154841
 H          4.5298596645        3.5752506603       -0.4456973603
 H          3.2835830960        1.4522327272       -0.3387777015
 H          3.2917406450       -1.4720803442        0.1552424425
 H          4.5335027803       -3.6013084634        0.1707119403
 H          2.3311033128       -5.9720577912       -2.3647840942
 H          1.4914640087       -7.9155389425       -3.6164657806
