  57
 
 C         -1.3381428288        3.3428291821       -2.5044520379
 C         -1.1581501198        2.1032998310       -3.0996618298
 C         -1.3103928327        0.9339406598       -2.3666298954
 C         -1.6453889580        1.0347711484       -1.0343375619
 C         -1.8266278644        2.2851446992       -0.4261865649
 C         -1.6739725462        3.4472979270       -1.1640819271
 C         -2.1598907459        2.0722973266        0.9735679229
 C         -2.4413759852        2.9671723474        1.9925183634
 C         -2.7326700278        2.4680188645        3.2519768691
 C         -2.7425618671        1.1023061149        3.4924705976
 C         -2.4609746016        0.1991188233        2.4761689731
 C         -2.1717640744        0.6922266487        1.2229929240
 C         -1.8422663599       -0.0772655004       -0.0322957104
 C         -2.9026740594       -1.0777966401       -0.4220380727
 C         -4.2383884245       -0.8534023828       -0.6717557092
 C         -5.0377711768       -1.9362584101       -1.0133917967
 C         -4.5043861588       -3.2133498365       -1.1011061716
 C         -3.1609342218       -3.4426672815       -0.8509218157
 C         -2.3572073420       -2.3674876385       -0.5092922036
 C         -0.9395123049       -2.2901367302       -0.1984595744
 C          0.0495441449       -3.2594610697       -0.1611491470
 C          1.3442373533       -2.8778273986        0.1449398047
 C          1.6675769869       -1.5481818550        0.4121074461
 C          3.0579133743       -1.1758871019        0.7232028396
 C          3.7176301391       -1.8226745051        1.7416755828
 C          5.0249760928       -1.4715692915        2.0993059230
 C          5.6738527102       -0.4701992493        1.4338608065
 C          5.0468983933        0.2046081560        0.3659641885
 C          5.7104101079        1.2252283752       -0.3474375579
 C          5.1057532832        1.8547429955       -1.3979649531
 C          3.8137128400        1.4769441625       -1.7921660995
 C          3.1416483745        0.4953256117       -1.1187956892
 C          3.7241231792       -0.1541187073       -0.0088392857
 C          0.6641857581       -0.5768247873        0.3988518568
 C         -0.6207612300       -0.9552670773        0.0904800201
 H         -1.2138535971        4.2391229821       -3.0947887066
 H         -0.8954752851        2.0465909129       -4.1458940336
 H         -1.1692693449       -0.0324699883       -2.8291713618
 H         -1.8113769707        4.4151556247       -0.7050882228
 H         -2.4353378119        4.0316481228        1.8102558222
 H         -2.9557915861        3.1515092162        4.0584018406
 H         -2.9728623017        0.7365774506        4.4823506279
 H         -2.4696140900       -0.8651023924        2.6624294334
 H         -4.6533289816        0.1417693266       -0.6026894649
 H         -6.0880049731       -1.7818812309       -1.2128399418
 H         -5.1461897438       -4.0403909320       -1.3682293776
 H         -2.7500847453       -4.4390429556       -0.9204817401
 H         -0.1803227878       -4.2926197034       -0.3759453853
 H          2.1319806027       -3.6175286691        0.1579139836
 H          3.2076029821       -2.5996335949        2.2933973291
 H          5.5092210676       -1.9936412811        2.9117688724
 H          6.6781962450       -0.1832541680        1.7111950602
 H          6.7134398416        1.4948055910       -0.0476489557
 H          5.6204616199        2.6359210489       -1.9382667380
 H          3.3518621675        1.9653042110       -2.6379538416
 H          2.1549373168        0.2008135126       -1.4441027086
 H          0.8971593679        0.4514545055        0.6362639943
