  96
 
 C          7.2949866028       -4.6981327954       -0.3774497284
 C          7.9660431583       -3.4846908559       -0.3739467991
 C          7.2590884549       -2.3009139194       -0.2893725691
 C          5.8665144885       -2.3201580467       -0.2087779470
 C          5.1172212405       -1.0706823142       -0.1102488707
 N          5.8121654138        0.0770597593        0.0052087673
 C          5.0900575518        1.2089923826        0.1138442480
 C          5.8116958645        2.4744546628        0.2150375015
 C          7.2043868858        2.4848762143        0.2969926300
 C          7.8860444509        3.6831389148        0.3845219727
 C          7.1895691980        4.8821344353        0.3898529573
 C          5.8045188628        4.8792348079        0.3083847546
 C          5.1171355106        3.6850172867        0.2221969200
 N          3.7820812409        1.2254703960        0.1305420364
 C          3.1215320560        0.0468725895       -0.0021954227
 C          1.7061213262        0.0285273517       -0.0035286472
 C          0.9625231866        1.2001984231        0.2547329390
 C         -0.4124598630        1.1794012832        0.2665400435
 N         -1.1217876412        2.3627567954        0.5500567268
 C         -2.1396840638        2.5065894719        1.4744953933
 C         -2.5372305107        1.6409754024        2.4835487328
 C         -3.5900718936        2.0306988814        3.2892611869
 C         -4.2260841778        3.2584163691        3.1134787901
 C         -3.8027250402        4.1474684699        2.1448422707
 C         -2.7460083381        3.7744270548        1.3240305549
 C         -2.0306820135        4.4360992480        0.2707129150
 N         -2.1948112944        5.6368109582       -0.2566707536
 C         -1.3833016855        5.9884483938       -1.2348790885
 C         -0.3828839724        5.1621560720       -1.7469855651
 C         -0.1849499883        3.9017656938       -1.2079524049
 C         -1.0241744868        3.5299027145       -0.1680207672
 C         -1.1211275011       -0.0138298745       -0.0030922272
 N         -2.5252262247       -0.0320097840       -0.0193910042
 C         -3.3358888696        0.7658857084       -0.8063302490
 C         -2.9805400496        1.6733252728       -1.7947495759
 C         -3.9950745329        2.3438420409       -2.4500536085
 C         -5.3356955891        2.1109457374       -2.1464522237
 C         -5.6986336369        1.1797070603       -1.1937470465
 C         -4.6933482764        0.4956574550       -0.5214116036
 C         -4.6945181293       -0.5351539064        0.4747841860
 N         -5.7008641413       -1.1496532833        1.0733443092
 C         -5.4041726827       -2.0606451060        1.9790898997
 C         -4.1006254658       -2.3828159350        2.3571457305
 C         -3.0302900777       -1.7544934347        1.7447540310
 C         -3.3312995000       -0.8266777206        0.7592763717
 C         -0.3779324129       -1.1868933875       -0.2640106401
 N         -1.0540211469       -2.3938262083       -0.5357024734
 C         -0.9157520275       -3.5639426357        0.1901710514
 C         -0.0526497619       -3.8517986756        1.2391719346
 C         -0.1340040204       -5.1066012271        1.8127955260
 C         -1.0528628267       -6.0557870248        1.3659469166
 C         -1.9233218921       -5.7724853642        0.3322405814
 C         -1.8582471505       -4.5168747228       -0.2600043025
 C         -2.5901955784       -3.8860320385       -1.3202424041
 N         -3.5748133068       -4.3446003517       -2.0746656601
 C         -4.0491947186       -3.5410556654       -3.0067803939
 C         -3.5523732362       -2.2616652304       -3.2537383701
 C         -2.5166834862       -1.7624853507       -2.4824214775
 C         -2.0469244653       -2.5789276694       -1.4652834658
 C          0.9959779348       -1.1660634255       -0.2595921741
 N          3.8103307303       -1.1156432413       -0.1341552749
 C          5.1974818268       -3.5450353293       -0.2137898221
 C          5.9101607656       -4.7245681901       -0.2970111536
 H          7.8498295806       -5.6222918328       -0.4417297813
 H          9.0441036396       -3.4629866145       -0.4367811830
 H          7.7659128493       -1.3480277286       -0.2860095243
 H          7.7313255687        1.5430184405        0.2924935374
 H          8.9642469702        3.6839495385        0.4484994192
 H          7.7245484111        5.8177215581        0.4567115297
 H          5.2609876082        5.8126760433        0.3119326535
 H          4.0398043812        3.6669603542        0.1565361651
 H          1.4941710660        2.1099265108        0.4828419360
 H         -2.0300198122        0.7026330557        2.6462621069
 H         -3.9222776219        1.3700230414        4.0760326459
 H         -5.0505361118        3.5208210311        3.7584147007
 H         -4.2676825511        5.1124155739        2.0201138351
 H         -1.5360452096        6.9823082771       -1.6322110693
 H          0.2399834266        5.5134803124       -2.5541976722
 H          0.5890482945        3.2451844066       -1.5785802628
 H         -1.9463451538        1.8419197547       -2.0555894141
 H         -3.7414079231        3.0605113680       -3.2168641173
 H         -6.0980908557        2.6603694440       -2.6770251509
 H         -6.7330716278        0.9738172464       -0.9687557693
 H         -6.2497930712       -2.5550682426        2.4365668896
 H         -3.9306597397       -3.1226873416        3.1227984270
 H         -2.0136479111       -1.9800709761        2.0313709364
 H          0.6570294154       -3.1198798035        1.5952529817
 H          0.5296787496       -5.3556633879        2.6273109749
 H         -1.0829775277       -7.0239753777        1.8420097235
 H         -2.6436016794       -6.4952292338       -0.0170176775
 H         -4.8567524983       -3.9444222305       -3.6017470326
 H         -3.9693657610       -1.6694049122       -4.0524327141
 H         -2.0901656240       -0.7904501449       -2.6789527992
 H          1.5533619132       -2.0606275409       -0.4856750127
 H          4.1199849795       -3.5498193599       -0.1481286196
 H          5.3863056008       -5.6691610531       -0.2986975999
