  74
 
 C         -6.8558427330        2.2608331488        0.4740712000
 C         -6.0535864917        1.4080532105       -0.5257626780
 C         -6.6618563597        1.5249899168       -1.9352176174
 C         -6.1186580026       -0.0433888656       -0.0900168041
 C         -7.3513365063       -0.6775511197       -0.0109444390
 C         -7.4721197716       -2.0043968486        0.3571492080
 C         -6.3318352127       -2.7329133830        0.6433725805
 C         -5.0947480022       -2.1275652803        0.5744447112
 C         -4.9728089781       -0.7796641015        0.2254958417
 N         -3.7144152223       -0.1948870283        0.1719588835
 C         -2.5803507971       -0.9700350084        0.5250213474
 C         -2.3142133917       -1.2392925972        1.8643834410
 C         -1.2080212186       -1.9967685937        2.2062984736
 C         -0.3804601429       -2.4771053784        1.2105258626
 S          1.0786220964       -3.4388585251        1.6409870547
 O          1.0894589764       -3.6190130998        3.0691420836
 O          1.1151806191       -4.6098066694        0.8046101188
 C          2.4151385733       -2.3474247446        1.1664581615
 C          2.6328604161       -1.2097143279        1.9360642364
 C          3.6359719475       -0.3206084246        1.6073971124
 C          4.4147872294       -0.6054408387        0.4901008949
 C          4.1690049282       -1.7520394974       -0.3089237276
 C          3.1554970348       -2.6329322933        0.0404427142
 C          5.1200719264       -1.7113510851       -1.3829844903
 C          5.3844082888       -2.5519812070       -2.4571474185
 C          6.4161451020       -2.2224894200       -3.3123091200
 C          7.1874048450       -1.0809784333       -3.1002970994
 C          6.9431143461       -0.2301730918       -2.0395378930
 C          5.8933996062       -0.5445430806       -1.1882883870
 N          5.4530405528        0.1114118413       -0.0537292403
 C          6.0009442742        1.2943916684        0.4716531293
 C          6.3966273720        1.3470684020        1.8043493422
 C          6.9362330279        2.5125938872        2.3166312158
 C          7.0930306736        3.6247487417        1.5060939940
 C          6.7029867832        3.5711079644        0.1782699440
 C          6.1536193323        2.4130207752       -0.3409570094
 C         -0.6319814236       -2.2152774453       -0.1231192847
 C         -1.7378110105       -1.4609952308       -0.4695977651
 C         -3.5353287982        1.1263605448       -0.2101944635
 C         -2.2504516451        1.6772411336       -0.2182687480
 C         -2.0415640251        2.9859021551       -0.5998012779
 C         -3.1145542565        3.7740774570       -0.9738256270
 C         -4.3884807067        3.2380272808       -0.9445865630
 C         -4.6279737713        1.9245655740       -0.5643092934
 H         -6.8497719045        3.3079380179        0.1843540169
 H         -7.8887006767        1.9280110232        0.5263474044
 H         -6.4173759192        2.1768306473        1.4667315623
 H         -6.0920633268        0.9169360012       -2.6353798643
 H         -6.6443663530        2.5544880616       -2.2818674470
 H         -7.6924226894        1.1815035133       -1.9432944848
 H         -8.2483836380       -0.1241909303       -0.2442379332
 H         -8.4464216178       -2.4654086873        0.4111265855
 H         -6.4009594509       -3.7746658316        0.9180661002
 H         -4.2096793323       -2.7068367150        0.7878598025
 H         -2.9799475548       -0.8574388413        2.6238662537
 H         -0.9739563137       -2.2317570575        3.2328584954
 H          2.0100951747       -1.0491615428        2.8018032867
 H          3.8058431032        0.5684356314        2.1948036162
 H          2.9428714494       -3.5262288035       -0.5245780229
 H          4.7963931685       -3.4438198801       -2.6092178591
 H          6.6396648190       -2.8601191913       -4.1542087301
 H          7.9976634284       -0.8585835477       -3.7785374436
 H          7.5567627832        0.6421523498       -1.8735818160
 H          6.2919312949        0.4704209899        2.4259171881
 H          7.2433133407        2.5491767577        3.3510978689
 H          7.5189670139        4.5312413851        1.9083909164
 H          6.8205530025        4.4373271621       -0.4555762019
 H          5.8303200088        2.3719279213       -1.3703712111
 H          0.0297915874       -2.6181900293       -0.8736415151
 H         -1.9591471112       -1.2451705604       -1.5041090654
 H         -1.4081977145        1.0731921583        0.0833512051
 H         -1.0391338335        3.3875475262       -0.6004461534
 H         -2.9642663360        4.7988695967       -1.2771848786
 H         -5.2185258866        3.8683797930       -1.2254432803
