  154
 
 C         -2.0266477817       -4.9490261748        1.0314911324
 C         -0.9007559724       -5.9919484915        0.9604857916
 C         -1.1650105799       -6.9659567828       -0.1976975938
 C         -0.9106004758       -6.7948890059        2.2648174858
 C          0.4134124029       -5.2643761485        0.7212160088
 C          1.4448226710       -5.2533827660        1.6657043327
 C          2.6352784414       -4.5797118565        1.4620333812
 C          2.8050565936       -3.8996290834        0.2654925625
 C          1.7735298181       -3.8823476073       -0.7018842521
 C          0.5908516030       -4.5592054843       -0.4686891646
 C          2.2496640142       -3.0560678622       -1.7846511808
 C          1.6895085845       -2.6543858073       -2.9858506734
 C          2.4054122613       -1.8189483286       -3.8348376150
 C          1.8344497052       -1.3061816147       -5.1483069325
 C          0.4168256621       -1.8218979910       -5.4151019773
 C          1.7800623997        0.2285589585       -5.0962919042
 C          2.7341387607       -1.7586753430       -6.3083596239
 C          3.6985757135       -1.4316235750       -3.4593106421
 C          4.2822515269       -1.8217656179       -2.2702910072
 C          3.5389274035       -2.6196470967       -1.4144576365
 N          3.8605431988       -3.1327272192       -0.1748816085
 C          5.0586552842       -2.9340558427        0.5226312513
 C          5.8061205978       -4.0458192250        0.9010713620
 C          7.0095164451       -3.8919111354        1.5642228616
 C          7.4885658739       -2.6208031772        1.8440563110
 C          6.7522571033       -1.5122801808        1.4734547189
 C          5.5256336508       -1.6478207883        0.8278530327
 C          4.7489432266       -0.4425765905        0.5051243538
 N          5.4567849543        0.6824825088        0.3348985458
 C          4.7166165779        1.7614597914        0.0301713111
 C          5.4363870707        3.0202792992       -0.1861101572
 C          6.7975722513        3.1093086895        0.1005378821
 C          7.4773113013        4.2930899478       -0.1141246161
 C          6.8094667853        5.3964169487       -0.6228028053
 C          5.4566284979        5.3121308326       -0.9151771265
 C          4.7707572811        4.1332048043       -0.6966843502
 N          3.4096997954        1.7605958604       -0.1018222912
 C          2.7628619314        0.5880664483        0.0850875476
 C          1.3553358264        0.5234762705       -0.0974571681
 C          0.6701459286       -0.7061423540        0.0128342905
 C         -0.6674524143       -0.7895821671       -0.2388301976
 C         -1.4141667550        0.3609171806       -0.5686843335
 C         -2.8207537577        0.2891782877       -0.7677033384
 N         -3.4251360933       -0.9082422582       -0.9083969127
 C         -4.7316135392       -0.9121307451       -1.0555298640
 C         -5.3956063925       -2.1907664157       -1.3190980823
 C         -6.7841173795       -2.2906066347       -1.2489786662
 C         -7.4073928626       -3.4958663652       -1.5115375279
 C         -6.6545967082       -4.6105400915       -1.8477712236
 C         -5.2728612939       -4.5171318177       -1.9214176985
 C         -4.6448086181       -3.3154597020       -1.6580434110
 N         -5.5156524833        0.1773585306       -0.9642670036
 C         -4.8435439086        1.3179203108       -0.7879365031
 C         -5.6421044030        2.5359697797       -0.5768860146
 C         -6.8419389856        2.7206243616       -1.2527404336
 C         -7.5708234416        3.8847914435       -1.0890502529
 C         -7.1102120560        4.8745606302       -0.2345741862
 C         -5.9332105589        4.6923124417        0.4699953839
 C         -5.1945008638        3.5251861948        0.3110975883
 N         -4.0206687626        3.3354774861        1.0546968450
 C         -3.7370431553        2.2341794183        1.8365206946
 C         -4.5533106249        1.1845972720        2.2227337017
 C         -4.0044884960        0.1862201955        3.0087946798
 C         -2.6728260035        0.2079915370        3.4314787794
 C         -2.0664409466       -0.9013789516        4.2784965345
 C         -0.8510965175       -1.4840918456        3.5407164583
 C         -1.6234301345       -0.3145716148        5.6276189652
 C         -3.0478020959       -2.0451560043        4.5527160078
 C         -1.8770162204        1.2931503563        3.0685566134
 C         -2.3993858481        2.3027105557        2.2820310146
 C         -1.8535679115        3.5201608028        1.7364859898
 C         -0.5995612988        4.1053359066        1.7940100369
 C         -0.3631421366        5.2967328105        1.1178488440
 C          0.9890135931        5.9919235076        1.1378572502
 C          1.4690615451        6.2179252078       -0.3034745453
 C          0.8389011267        7.3443235818        1.8515775241
 C          2.0596047906        5.1756466896        1.8689598920
 C         -1.4140441583        5.8773094571        0.3935536127
 C         -2.6697217251        5.3104418595        0.3098502957
 C         -2.8912345792        4.1222169595        0.9912443994
 N         -3.5380272908        1.4332987131       -0.7739078465
 C         -0.7370862168        1.5970447255       -0.6475547474
 C          0.6075790658        1.6739131589       -0.4316888886
 N          3.4449796124       -0.5313749968        0.4144706255
 H         -2.0992298814       -4.3777845699        0.1102699080
 H         -1.8416951809       -4.2527304534        1.8466210783
 H         -2.9826823030       -5.4379531418        1.2053885589
 H         -0.3555044284       -7.6891238911       -0.2729297455
 H         -1.2473731368       -6.4454302407       -1.1472183800
 H         -2.0946046896       -7.5036099223       -0.0244929289
 H         -1.8627201937       -7.3127546743        2.3599416907
 H         -0.1190631060       -7.5406077241        2.2708868692
 H         -0.7988926703       -6.1437350481        3.1284075400
 H          1.3237939417       -5.7794536858        2.5973366058
 H          3.4034593576       -4.5768806389        2.2203863601
 H         -0.1880017250       -4.5218751124       -1.2134806911
 H          0.6973764541       -2.9904296192       -3.2344731496
 H         -0.2691453855       -1.5003650787       -4.6338728185
 H          0.4013508223       -2.9070500360       -5.4835362446
 H          0.0592641313       -1.4204674983       -6.3610375642
 H          2.7693312954        0.6586316378       -4.9645769777
 H          1.3580199336        0.6192773830       -6.0197211267
 H          1.1560289491        0.5542345708       -4.2653449861
 H          3.7409758836       -1.3634740890       -6.2082273204
 H          2.3241659407       -1.4105486604       -7.2537589430
 H          2.7937042638       -2.8446881048       -6.3349053215
 H          4.2735198146       -0.7963385632       -4.1157169977
 H          5.2821114902       -1.5000592908       -2.0140630281
 H          5.4402684064       -5.0304470167        0.6496179134
 H          7.5786839910       -4.7630748626        1.8500969499
 H          8.4319687568       -2.4955674715        2.3526877669
 H          7.1023658839       -0.5148796492        1.6903558056
 H          7.3035123258        2.2389501243        0.4888128841
 H          8.5315496852        4.3561183816        0.1127587894
 H          7.3431019406        6.3197087274       -0.7937075086
 H          4.9373885452        6.1687388191       -1.3190662875
 H          3.7187325343        4.0503186663       -0.9197917660
 H          1.2356616217       -1.5781664022        0.3004361097
 H         -1.1885676601       -1.7325986125       -0.1652274536
 H         -7.3539237698       -1.4125459351       -0.9857142916
 H         -8.4837054340       -3.5672255237       -1.4546720065
 H         -7.1441261566       -5.5507046639       -2.0547499151
 H         -4.6868981133       -5.3846981231       -2.1867344345
 H         -3.5712171265       -3.2194448340       -1.7155334084
 H         -7.1797554102        1.9416932634       -1.9196438571
 H         -8.4948644206        4.0214915411       -1.6293930383
 H         -7.6751865828        5.7848539510       -0.1045438914
 H         -5.5854203287        5.4435641484        1.1634859840
 H         -5.5871535352        1.1314418466        1.9106731222
 H         -4.6461304677       -0.6327063805        3.2891427558
 H         -1.1454087343       -1.8483797719        2.5586607329
 H         -0.4288103825       -2.3102542369        4.1086639217
 H         -0.0727730362       -0.7399360946        3.3962096379
 H         -0.8768698001        0.4631349269        5.4929910738
 H         -1.1946098661       -1.0962282023        6.2506234687
 H         -2.4760233352        0.1163467434        6.1484150474
 H         -3.3923572053       -2.4941205620        3.6236477175
 H         -3.9066140596       -1.6977887730        5.1222095607
 H         -2.5485073214       -2.8159381207        5.1360446441
 H         -0.8473510254        1.3543742519        3.3842594011
 H          0.1770756528        3.6116554358        2.3529906068
 H          1.4994653649        5.2722600942       -0.8409666905
 H          2.4694104789        6.6436721171       -0.2947744939
 H          0.8155630157        6.8959561927       -0.8444481657
 H          0.1200932548        7.9801886225        1.3422487920
 H          1.7966403259        7.8591721905        1.8778856201
 H          0.4983296527        7.1935933257        2.8738831286
 H          1.8009425617        5.0346246847        2.9159583484
 H          2.1996180203        4.2022622418        1.4025960778
 H          3.0101027318        5.7038563586        1.8280521260
 H         -1.2446551308        6.8035610534       -0.1324004021
 H         -3.4480115360        5.7732023072       -0.2777633193
 H         -1.3100542473        2.4776537471       -0.8984365562
 H          1.1279899789        2.6170108344       -0.5071923739
