  110
 
 C         -4.4161939543       -5.5686630559       -3.2536660128
 C         -3.0127039246       -4.9889014319       -3.4545303297
 C         -2.8394983563       -4.6615499783       -4.9456967894
 C         -1.9906015470       -6.0565811988       -3.0344656851
 C         -2.7775197639       -3.7288170599       -2.6364422991
 C         -1.5342819821       -3.0874895405       -2.7175127463
 C         -1.2287868584       -1.9476650214       -2.0005579120
 C         -2.2010482403       -1.4285344132       -1.1565504527
 C         -3.4731151686       -2.0370353155       -1.0814128304
 C         -3.7542003750       -3.1793397463       -1.8130221223
 C         -4.2556917147       -1.2346495922       -0.1748168889
 C         -5.5550354735       -1.3338678796        0.2953546589
 C         -6.0364077618       -0.3916053881        1.1981291424
 C         -7.4578527794       -0.4268938196        1.7365509562
 C         -8.2753751692       -1.5912303587        1.1686523221
 C         -8.1661982664        0.8833449806        1.3588837262
 C         -7.4151446487       -0.5728491962        3.2653989715
 C         -5.1717416709        0.6233145494        1.6302205799
 C         -3.8721233778        0.7403691301        1.1811699263
 C         -3.4156443392       -0.1824232000        0.2508385674
 N         -2.1764538820       -0.3121176952       -0.3426124336
 C         -1.0959738317        0.5671440264       -0.2006718643
 C         -1.2908385344        1.9333979558       -0.3706643348
 C         -0.2081216333        2.8162188622       -0.2839523427
 C         -0.3300796740        4.2643951678       -0.5296048242
 O          0.6295172297        4.8826060049       -1.0729419290
 C         -1.5312250293        4.9376055140       -0.1368275607
 C         -1.7880467675        6.2654370964       -0.5823752309
 N         -2.8581261375        6.9256276458       -0.2452555579
 C         -3.7388689840        6.3546196295        0.5737700714
 N         -3.5605952848        5.1571578697        1.1263602485
 C         -2.4930300329        4.4777041352        0.7960737593
 C          1.0702944962        2.2922176486       -0.0642140118
 C          1.2645918916        0.9275742118        0.0911002164
 N          2.5527951808        0.4308199685        0.3125087661
 C          2.9224581855       -0.4659319034        1.2949831475
 C          2.1705112816       -1.0590638893        2.3001929591
 C          2.8134434362       -1.9187267832        3.1685722184
 C          4.1826120804       -2.2049433230        3.0835926565
 C          4.7967648905       -3.1747702110        4.0807789052
 C          6.2979992628       -3.3799981139        3.8561709792
 C          4.5970651899       -2.6289812063        5.5030377850
 C          4.1021759137       -4.5386208556        3.9446041514
 C          4.9303521604       -1.5809649320        2.0905768287
 C          4.3099061811       -0.7143752299        1.2058652964
 C          4.7963156702        0.0819992600        0.1066175419
 C          6.0489292147        0.2402900825       -0.4631753808
 C          6.2067980712        1.0846416894       -1.5571657853
 C          7.5534535868        1.3132036222       -2.2253091369
 C          7.4679672131        0.8702521426       -3.6940586952
 C          7.9002853226        2.8083146615       -2.1527138195
 C          8.6861520265        0.5288399482       -1.5556513845
 C          5.0768323877        1.7407476365       -2.0642365378
 C          3.8169989648        1.5989522556       -1.5176279996
 C          3.6791319640        0.7755217772       -0.4080987627
 C          0.1778192437        0.0556991924        0.0413686814
 H         -4.5234110861       -6.4699175407       -3.8538644948
 H         -4.5838741367       -5.8375113440       -2.2132403273
 H         -5.1811996365       -4.8635276922       -3.5706374068
 H         -1.8319250368       -4.3194897564       -5.1650405674
 H         -3.5369220810       -3.8809982375       -5.2437574102
 H         -3.0358378924       -5.5471569545       -5.5462891571
 H         -0.9716808964       -5.7261023969       -3.2154968682
 H         -2.1562786534       -6.9720354016       -3.5982948894
 H         -2.0940700717       -6.2806272639       -1.9745453347
 H         -0.7734593911       -3.4888827938       -3.3684924255
 H         -0.2659605025       -1.4727448474       -2.1104928825
 H         -4.7330883557       -3.6196610981       -1.7306076224
 H         -6.1711003188       -2.1466735873       -0.0494862069
 H         -8.3543326612       -1.5229997364        0.0860508212
 H         -9.2821973097       -1.5589602778        1.5799770520
 H         -7.8345734581       -2.5483237555        1.4379442817
 H         -7.6642093596        1.7467370601        1.7866915981
 H         -9.1913669475        0.8710568916        1.7228460156
 H         -8.1854526998        1.0031181749        0.2772496780
 H         -6.8868875696       -1.4830803880        3.5424731322
 H         -8.4266689006       -0.6262982128        3.6621365234
 H         -6.9122419278        0.2695000986        3.7320451481
 H         -5.5213785059        1.3523432372        2.3442097376
 H         -3.2339589361        1.5259230344        1.5536986433
 H         -2.2694225850        2.2961682294       -0.6453090629
 H         -1.0674928974        6.7500637762       -1.2293732790
 H         -4.6313412462        6.9047156183        0.8242028674
 H         -2.3476059769        3.5399823317        1.3175816048
 H          1.9001965011        2.9787082674        0.0045672126
 H          1.1183221795       -0.8488487047        2.4151589895
 H          2.2241454449       -2.3798321196        3.9456312788
 H          6.6798188276       -4.0849747895        4.5918588391
 H          6.4944451666       -3.7887132756        2.8676135105
 H          6.8433560889       -2.4464176848        3.9741033661
 H          3.5434974457       -2.5305089315        5.7489930596
 H          5.0629234715       -1.6501605568        5.5997553108
 H          5.0533786228       -3.3011112070        6.2265835313
 H          4.5435484306       -5.2516745866        4.6375752328
 H          3.0398704157       -4.4680737081        4.1606903437
 H          4.2206493024       -4.9218670308        2.9329744810
 H          5.9888530374       -1.7512551438        1.9931574557
 H          6.8814090569       -0.3004986626       -0.0465351586
 H          7.1947996482       -0.1814200451       -3.7552546078
 H          8.4316502416        1.0061731961       -4.1801132694
 H          6.7278411411        1.4473895682       -4.2412200271
 H          8.8681056305        2.9891774722       -2.6155312642
 H          7.1597154509        3.4154291563       -2.6659353605
 H          7.9471901782        3.1343034470       -1.1153622459
 H          8.8043046812        0.8230635065       -0.5153017138
 H          8.5064975658       -0.5424309526       -1.6089016018
 H          9.6217018010        0.7372919696       -2.0706452773
 H          5.1790842004        2.3877710843       -2.9214897718
 H          2.9719351275        2.1161108167       -1.9463068853
 H          0.3226916978       -1.0053893927        0.1638837642
