95
 xtb: 6.7.1 (edcfbbe)
C            1.45371135124659       -7.01133406141432        0.57050692872192
C            0.35965754398956       -7.06027571426537        1.41920613193851
C           -0.75925667840657       -6.28864067840090        1.16066701701088
C           -0.78675332858240       -5.46068837066459        0.04178496412942
N           -1.93519594621898       -4.70508716802919       -0.24191463702527
C           -2.02749875805506       -3.35859776156572       -0.60410694034094
C           -1.00514101174419       -2.38781906887113       -0.47350805275711
C            0.15753206514330       -2.54375249339222        0.32687634169326
C            1.09711264758487       -1.55951460090550        0.40572040540736
C            0.94129426540363       -0.31546448527052       -0.25905098489588
C            1.90089889504604        0.73567243472789       -0.12661400195449
C            3.26475787320799        0.42891387251782        0.00581971585513
C            4.23888829644515        1.39630046601968       -0.09881219402579
N            5.59024016163757        1.05884696489414        0.00490284394088
C            6.59053956746340        1.45196993592706       -0.86247363528993
C            6.50348503693746        2.18936051062989       -2.03601552086895
C            7.67109399432062        2.42769945907250       -2.73706651021336
C            8.89717326166758        1.93450044900580       -2.29653542843626
C            8.98530999824351        1.17064755722020       -1.14717169964339
C            7.82707212772955        0.92098473507909       -0.42514763991877
C            7.54787493678482        0.16883034564526        0.76880647526604
C            8.34104843409345       -0.55329952800253        1.64930533698050
C            7.74151423416748       -1.15260643193290        2.74156345310116
C            6.37320567261243       -1.02261799231504        2.96896127813568
C            5.56352705497789       -0.30707951834169        2.10636416092380
C            6.15497076982196        0.27514704393256        0.99333262866331
C            3.87054218287084        2.74527395335245       -0.32852431737736
C            2.54391411437723        3.08076733242614       -0.39381385971978
C            1.52809867963021        2.12693898422883       -0.23816818126350
C            0.16170611847770        2.55219215446072       -0.07280144368432
C           -0.35698860802752        3.66371993776069       -0.76642779467205
C           -1.67215192470347        4.03491666938653       -0.64070300324724
C           -2.53262510813090        3.32901862823997        0.21131530188141
N           -3.87629331852825        3.67867294636700        0.31701506284552
C           -4.37828447233604        4.95750519199014        0.47147974370371
C           -3.70355897386126        6.16197563409757        0.62048443980216
C           -4.45717363756515        7.30860807129316        0.79301705765723
C           -5.84862907268441        7.26469650034782        0.83221508440863
C           -6.52572616903063        6.06405945717365        0.71764424214513
C           -5.79044931711313        4.90120616010389        0.54037651358138
C           -6.15083171742108        3.51380167999740        0.41441426770436
C           -7.36548190164568        2.84404817241118        0.38543678438964
C           -7.36027524523027        1.47120236385200        0.21716324108480
C           -6.16516765583192        0.77314478073172        0.06053125788884
C           -4.94293755090224        1.41966232342255        0.08391904191732
C           -4.94015212162094        2.79382755653820        0.28367765309777
C           -2.01888295605041        2.25891082268558        0.95335880578344
C           -0.70938518361351        1.87899296306764        0.81198032690765
C           -0.22597844784961       -0.16721827221467       -1.06333163352141
C           -1.15445136345337       -1.15609456168691       -1.16210560701071
N           -3.25074091257804       -3.05124767730468       -1.03888271036493
C           -3.98500496178926       -4.18163633430747       -0.95104135561721
C           -5.32378836272135       -4.41474248732003       -1.27724252282841
C           -5.81471020083705       -5.69174013089258       -1.10944720992953
C           -5.01012565414449       -6.73219830727162       -0.63917954987793
C           -3.68024753529514       -6.52745225452591       -0.30690443566865
C           -3.18283029275364       -5.24602210664311       -0.45209798133305
C            0.31080419298654       -5.41849295765256       -0.81658905325915
C            1.42633139939034       -6.18734710965639       -0.54438999244975
H            2.33644856719118       -7.61260379784421        0.71895585872999
H            0.40211376753084       -7.71095809248959        2.25003182278017
H           -1.58953305989214       -6.32207391957543        1.81567419620982
H            0.28175071378280       -3.44013023376561        0.91733732967543
H            1.94879069526627       -1.70735078620487        1.05512906757743
H            3.56556505571175       -0.60489874770368        0.10255773750828
H            5.55548938082514        2.53632886276161       -2.40652343249619
H            7.63043375169184        2.97648986075770       -3.66097198674008
H            9.78840830596897        2.12375491044920       -2.87477768372732
H            9.93458044114096        0.76922477169952       -0.81131505888140
H            9.40580681075759       -0.62656056547932        1.50149863087088
H            8.34140261989113       -1.69868305991860        3.45867197500074
H            5.93519541235913       -1.46493119923089        3.85829658745462
H            4.50796548684683       -0.18288050523652        2.31074245235484
H            4.63884770791925        3.49963507797432       -0.38637695908631
H            2.27450946291979        4.11958706763635       -0.49585781214963
H            0.27532404417800        4.19290901142967       -1.46431026093134
H           -2.06291465413152        4.84690088904313       -1.23401343842350
H           -2.62731547349792        6.20399773983523        0.62443322987918
H           -3.95908907539239        8.25477611246849        0.91490286100951
H           -6.40721831311379        8.17608182398964        0.97044201933812
H           -7.60537345410450        6.02237773541678        0.76492464326396
H           -8.29235644654617        3.38017570776291        0.47221246386083
H           -8.29068446723056        0.92497981839791        0.17484882003996
H           -6.18133034205206       -0.29897523190868       -0.10620944309793
H           -4.02352857882842        0.86535701272208       -0.07078102533478
H           -2.65623233341288        1.74865325388386        1.65846760180376
H           -0.32099890655505        1.07878749295305        1.42415000458443
H           -0.34026505006714        0.72806268210836       -1.65288904034322
H           -2.02728522428439       -1.03934318521780       -1.78429564114902
H           -5.95355517602439       -3.60363403877576       -1.61101198785209
H           -6.85862177407224       -5.89174725556964       -1.31367832543870
H           -5.43909482783361       -7.71631982813869       -0.51784371851934
H           -3.06055011168747       -7.33962365341936        0.04043514503492
H            0.26262911905155       -4.76335615157024       -1.70470346287156
H            2.26503261251829       -6.13445089622218       -1.25807396640798
