101
 xtb: 6.7.1 (edcfbbe)
C            5.35244885756750       -4.28423250770813       -0.01987101872003
C            5.08277383044982       -2.76884871399642        0.00131736101281
C            6.40718388902574       -1.98426163025495        0.02317674935368
C            4.32483481547412       -2.39261394162783       -1.25745678964283
C            4.89260808475220       -2.63540067167585       -2.50088074266996
C            4.24917493793939       -2.30636130278872       -3.67971187036208
C            2.99992554075820       -1.71707063228161       -3.62967271096586
C            2.41218416164590       -1.46571386724027       -2.40736503822978
C            3.06308551864814       -1.79694001552670       -1.21821700071513
N            2.44070415937243       -1.54312675321218        0.00030199924982
C            1.21864340434963       -0.84228571947274        0.00139954591870
C            0.00162571399615       -1.52024709344073        0.01020205788235
F            0.00299795871568       -2.85807146655434        0.02220539671820
C           -1.21675738463472       -0.84475412105167        0.00680103293345
N           -2.43740135156792       -1.54809107401814        0.00822804282060
C           -3.04953187309134       -1.82321059152733       -1.21133794293016
C           -2.39179985432570       -1.50658663890542       -2.40062498358588
C           -2.97029896703923       -1.77754896351115       -3.62305562172067
C           -4.21751017279752       -2.37112121678465       -3.67311569847728
C           -4.86851716364866       -2.68403283644724       -2.49414953453961
C           -4.31001041467785       -2.42163489777176       -1.25061581046764
C           -5.07691481335437       -2.77929093749548        0.00802174861945
C           -5.34323544454428       -4.29530557297054        0.00888006667705
C           -6.40306175211600       -1.99756660725545        0.00732335644601
C           -4.31032240328137       -2.42019480957314        1.26645225892206
C           -4.86935681393829       -2.68035544323626        2.51021054736709
C           -4.21896445973366       -2.36495874148252        3.68886207966889
C           -2.97220648363597       -1.77044861610609        3.63831842227686
C           -2.39325278484401       -1.50158729212869        2.41566290177291
C           -3.04985721991484       -1.82179956282481        1.22676140038086
C           -1.20619608060227        0.55763237278963       -0.00059030828749
C           -2.43613491674834        1.25993830822812       -0.00194395166811
N           -3.43136158496116        1.82470201845277       -0.00282422292360
C           -0.00120787339261        1.26756615711793       -0.00612997994334
N           -0.00265207223224        2.67663125907333       -0.00813997230193
C           -0.00506694966906        3.34638861911119       -1.22711734989653
C           -0.00625237135032        2.61496217593183       -2.41538604237423
C           -0.00859535684895        3.25277823282258       -3.63831831529759
C           -0.00991558990147        4.63394905231698       -3.68957181440822
C           -0.00902656534964        5.35745845033306       -2.51134740026440
C           -0.00664129137120        4.74153768249506       -1.26732077461098
C           -0.00606216109446        5.58837523564689       -0.00916753776591
C           -1.27267500733576        6.46307389074658       -0.00796473481423
C            1.25832566350957        6.46628520152473       -0.01124856376905
C           -0.00336845611784        4.74286911503458        1.24987045316341
C           -0.00234553578686        5.36030224121925        2.49316409653540
C            0.00032076519361        4.63830346896850        3.67229973761607
C            0.00222408516940        3.25708972779883        3.62265623857177
C            0.00127108760396        2.61776376764660        2.40048327070508
C           -0.00170449586786        3.34765517922746        1.21121915105824
C            1.20521932761662        0.56007540980859       -0.00726585750472
C            2.43371705591279        1.26488837980235       -0.01403128706140
N            3.42778207467393        1.83167819856195       -0.01972585543822
C            3.04397435465860       -1.83579200925057        1.21979133337514
C            2.37916009691078       -1.53309170668386        2.40879475706879
C            2.94994059859744       -1.81928882730363        3.63148722000884
C            4.19715355834700       -2.41283615554467        3.68202259246594
C            4.85647971949301       -2.70923368669743        2.50329861954119
C            4.30565569030902       -2.43168291697663        1.25951256889253
H            5.92021235675190       -4.57289947903859       -0.88681270929446
H            4.40936278278321       -4.82766904327529       -0.01263306053612
H            5.91504126979589       -4.58286737228481        0.87321309312331
H            6.20224396473454       -0.91529951054393        0.01468235309344
H            7.00052395740745       -2.21600174038020       -0.87079346134225
H            6.99574909982521       -2.22591365353583        0.88987528383647
H            5.85639842628631       -3.11748363654047       -2.55763057090401
H            4.70047020621716       -2.55096437849284       -4.62910255528617
H            2.46026987969196       -1.49170796643515       -4.53765273387770
H            1.42381254678679       -1.02805924011041       -2.37917386840356
H           -1.41722770846762       -1.03994094423980       -2.37713939685618
H           -2.44839867832391       -1.51478366113116       -4.53564049353627
H           -4.68594812973064       -2.57964030198168       -4.62712108944151
H           -5.84467556015402       -3.14019798414861       -2.55560055527085
H           -5.90864425596695       -4.58892586037692       -0.87867463434483
H           -5.90701041302435       -4.59135287449454        0.88137106719152
H           -4.39902010939264       -4.83665412769481       -0.00038442131784
H           -6.20044080298428       -0.92814878375209        0.00613102140391
H           -6.99416859006853       -2.23456292277327       -0.87503867210534
H           -6.99279813738459       -2.23653227286739        0.88564110672051
H           -5.84121929652780       -3.14671491057651        2.56203634700445
H           -4.68000618800254       -2.59065472342590        4.63336845357725
H           -2.44324418494844       -1.52419908491271        4.54156895762692
H           -1.41504341150455       -1.04379299517294        2.38276737981975
H           -0.00198979278493        1.53560160888808       -2.38286632414968
H           -0.00353882388104        2.67004722977245       -4.54182495749171
H           -0.00622294480502        5.14789801752520       -4.63429771947887
H           -0.00736891500570        6.43600935343335       -2.56336901116221
H           -1.30473237790791        7.09915467344093        0.87598261883852
H           -1.30514837956663        7.09866997670838       -0.88443032418872
H           -2.15798864732002        5.82989740912637       -0.00366901966557
H            1.28882115036415        7.10204408253074       -0.88478695449255
H            1.28905850971114        7.10241889013247        0.87561594037689
H            2.14522423139099        5.83539586185830       -0.00443583047455
H           -0.00656033058299        6.43705681090997        2.55470123955431
H           -0.00450339644820        5.14990659784944        4.62623550987595
H           -0.00135961696110        2.67199261897974        4.53481608937505
H           -0.00042338173864        1.53660659840265        2.37654146388681
H            1.41282495687091       -1.05031424208616        2.38071506690337
H            2.43764568775079       -1.53780482847328        4.53949090014871
H            4.67621347838265       -2.60048242643264        4.63130365210491
H            5.84263376632069       -3.14553811086222        2.55995086614164
