  54
 
 F         -1.4825270841        0.0008575142        2.2700670370
 C         -0.7489994640        0.0005007336        1.1464103135
 C          0.6295966797        0.0004899826        1.2434289786
 C          1.3999521979        0.0000983207        0.0882585090
 N          2.8150498191        0.0000599646        0.1751049559
 C          3.4588790878        1.2367431426        0.0717326596
 C          2.7102959816        2.3996236585       -0.1079176273
 C          3.3148189092        3.6406763591       -0.2063439960
 C          4.6898027977        3.7539931713       -0.1371748580
 C          5.4487617816        2.6120791561        0.0461332624
 C          4.8457743133        1.3701445538        0.1612196616
 S          5.9197923853        0.0000060289        0.4770459499
 C          4.8456475753       -1.3702202984        0.1620330513
 C          5.4485205235       -2.6122783242        0.0476811716
 C          4.6894557364       -3.7542322852       -0.1349387435
 C          3.3144812522       -3.6408319236       -0.2041557860
 C          2.7100728414       -2.3996655057       -0.1064653167
 C          3.4587638158       -1.2367450728        0.0724757609
 C          0.7490082908       -0.0002629709       -1.1463559130
 F          1.4825366642       -0.0006367838       -2.2700120589
 C         -0.6295875075       -0.0002357463       -1.2433744428
 C         -1.3999433860        0.0001486808       -0.0882042113
 N         -2.8150399561        0.0001433912       -0.1750590096
 C         -3.4587575102       -1.2366657098       -0.0725112129
 C         -2.7100753805       -2.3995716831        0.1065658905
 C         -3.3144776472       -3.6407504235        0.2041410102
 C         -4.6894393263       -3.7541734202        0.1346985916
 C         -5.4484987102       -2.6122247580       -0.0479771981
 C         -4.8456299153       -1.3701539718       -0.1622153826
 S         -5.9197582193        0.0000903346       -0.4771992640
 C         -4.8457698868        1.3702099702       -0.1611797694
 C         -5.4487773386        2.6121292231       -0.0460387888
 C         -4.6898362553        3.7540460873        0.1373268679
 C         -3.3148484831        3.6407514737        0.2064486243
 C         -2.7103057261        2.3997130183        0.1079668480
 C         -3.4588745067        1.2368215824       -0.0716650811
 H          1.1032622011        0.0007618506        2.2122201318
 H          1.6342756573        2.3397438536       -0.1657119735
 H          2.6990161418        4.5167786380       -0.3399252303
 H          5.1701060662        4.7160229129       -0.2184024835
 H          6.5242983966        2.6689191487        0.1152670004
 H          6.5240527248       -2.6691751491        0.1168374852
 H          5.1696703577       -4.7163542705       -0.2155964569
 H          2.6985965420       -4.5169589109       -0.3371963075
 H          1.6340567744       -2.3397235924       -0.1642722310
 H         -1.1032530838       -0.0005283047       -2.2121655327
 H         -1.6340725977       -2.3396003376        0.1645918005
 H         -2.6986008337       -4.5168668990        0.3372871721
 H         -5.1696496266       -4.7163054656        0.2152614639
 H         -6.5240221457       -2.6691339279       -0.1172578737
 H         -6.5243135489        2.6689580897       -0.1151891813
 H         -5.1701543537        4.7160646741        0.2185993665
 H         -2.6990561723        4.5168626099        0.3400199994
 H         -1.6342798489        2.3398616096        0.1656833666
