55
 xtb: 6.7.1 (edcfbbe)
C           -5.10428709623783       -0.43715268341109        3.57228313576268
C           -3.72465724095491       -0.43420149633211        3.60136396697417
C           -2.99875729245984       -0.43720779700760        2.41856880882689
C           -3.64700015602455       -0.44207341202411        1.19034616524631
C           -5.04858908700526       -0.44669998594415        1.16993596778216
C           -5.76605662708914       -0.44402019227460        2.35066905231470
O           -5.76791770336656       -0.45418515013758       -0.00591935421805
C           -5.05454672807097       -0.46526596442329       -1.18534780651230
C           -5.77775484335429       -0.47680685469531       -2.36239657916734
C           -5.12190183629501       -0.48437181798511       -3.58728156872181
C           -3.74244627602520       -0.47930885341015       -3.62339317670299
C           -3.01081233888552       -0.46774740003579       -2.44432138010764
C           -3.65311902477949       -0.46240507352559       -1.21291323893072
N           -2.94716184296829       -0.44569321872631       -0.01395121505172
C           -1.52541156288567       -0.46148115954374       -0.01747747204302
C           -0.84301035819005       -1.67783618462967       -0.06429906789907
C            0.53157223841974       -1.67246899031121       -0.06386768269165
C            1.24626887612743       -0.47086423984062       -0.02108508385701
C            0.56711189012257        0.76367381535910        0.02002237669787
C           -0.83160251199606        0.73311915931386        0.02382600991688
C            1.31909497350102        2.01125344242899        0.05308420433359
C            0.69623787021357        3.26490552494332        0.08148893275844
C            1.42983281080519        4.43157643686163        0.10904522173959
C            2.81972395734196        4.39031727125683        0.10918000981801
C            3.45955635534567        3.17248648421249        0.08148295101826
C            2.72821310953674        1.98109091734547        0.05322893158869
C            3.43115143923654        0.71645485406049        0.02224006587847
N            4.75154776535699        0.71630045794590        0.03160698223561
C            5.38440550069839       -0.46621938331166       -0.00229658762504
C            6.79556956276295       -0.51136599077454        0.00598557121449
C            7.43577689328169       -1.71730331457660       -0.02682070012449
C            6.70691753776474       -2.92259369069832       -0.06953999638446
C            5.34131233175242       -2.91594946074391       -0.07892561635604
C            4.64609478402064       -1.68739335111281       -0.04503939142484
N            3.30467402732606       -1.67568994996261       -0.05468148345826
C            2.69300097233866       -0.50596966166930       -0.01821098657440
H           -5.68375972029183       -0.50521824459987        4.48771082716067
H           -3.20769559876485       -0.49183022145013        4.54856594286091
H           -1.92519598243380       -0.46433543811604        2.45416229874288
H           -6.84845109967993       -0.48959054911173        2.29345562088486
H           -6.85039882305882       -0.45211477461491       -2.30386434129407
H           -5.68750790844258       -0.43250797615678       -4.49904537237141
H           -3.21149356288849       -0.41883486011040       -4.56175970600831
H           -1.92728810675432       -0.42553944604056       -2.46823625647906
H           -1.39863066020797       -2.60145168827294       -0.04392940294312
H            1.09222523233127       -2.59182705617149       -0.04333023299977
H           -1.40365908903951        1.64903774858027        0.02781158538466
H           -0.37736548240863        3.33939514792298        0.04603884550484
H            0.92167504583566        5.38507572737127        0.07508049284388
H            3.39358245385235        5.30715348401568        0.07629962617283
H            4.53774729478895        3.10287727322570        0.04714107970466
H            7.33533138726512        0.42144938518459        0.01584535187155
H            8.51402960669139       -1.75964225245561       -0.01964617733729
H            7.24161866387254       -3.86170700938122       -0.05914452375258
H            4.76199424209857       -3.82864289768755       -0.06329960941430
