  120
 
 C         -2.1326682668       -6.0332023262       -1.3212572412
 C         -1.0537091574       -5.0355694152       -1.0216853160
 C          0.2826891500       -5.4185255819       -0.9519235842
 C          1.2865418604       -4.5058469611       -0.6867368742
 C          0.9382136275       -3.1858975201       -0.4410969508
 C         -0.4158425093       -2.7706728504       -0.5256189353
 C         -1.3915241635       -3.7049693673       -0.8350727696
 C         -0.4343484070       -1.3371532230       -0.3588254250
 C         -1.4162860603       -0.3466028563       -0.2745119353
 C         -0.9327229846        0.9519692234       -0.2584654351
 C          0.4293734554        1.3357866295       -0.3647740747
 C          1.4123141946        0.3451891136       -0.2916530076
 C          0.9289725143       -0.9533397393       -0.2689153202
 N          1.7337879554       -2.0784677014       -0.2253139923
 C          3.0517739341       -1.9604906355        0.1880857953
 C          3.7780010736       -3.0389105677        0.6898818878
 C          5.0946716986       -2.8938407779        1.0689402986
 C          5.7413312380       -1.6654386032        0.9749965842
 C          7.2043458321       -1.5412807927        1.3656294020
 C          7.7497707208       -0.1249317699        1.1631783979
 C          7.3578377026       -1.9086330233        2.8482070049
 C          8.0350489221       -2.5017746286        0.5031393611
 C          4.9861087017       -0.5859062824        0.5444045771
 C          3.6529514843       -0.7000863856        0.1750694310
 C          2.9034328773        0.5637333567       -0.2491656419
 C          3.3366687971        1.6841116362        0.6704305213
 C          2.9860521124        1.9004996383        1.9828103422
 C          3.5645038355        2.9699487035        2.6550030301
 C          4.4868303095        3.7903142524        2.0250484953
 C          4.8445700071        3.5764176206        0.7027575996
 C          4.2608601153        2.5210475591        0.0237397044
 C          4.3763307147        2.0907934755       -1.3645631472
 C          5.1080928986        2.6077265968       -2.4198850936
 C          4.9738066367        2.0217557796       -3.6689196095
 C          4.1237337939        0.9438648088       -3.8619867026
 C          3.3937685378        0.4142876496       -2.8056527822
 C          3.5237990646        0.9939227763       -1.5639852852
 C          0.4087168389        2.7691479900       -0.5322590910
 C          1.3809564668        3.7032732145       -0.8545979150
 C          1.0406762479        5.0328379649       -1.0406269904
 C          2.1123981841        6.0357547431       -1.3476682102
 C         -0.2954040538        5.4158040886       -0.9552738424
 C         -1.2956494168        4.5039156529       -0.6761410172
 C         -0.9440901631        3.1842128775       -0.4323778345
 N         -1.7371370071        2.0770144423       -0.2064818914
 C         -3.0494688162        1.9592789601        0.2247594463
 C         -3.7691004936        3.0380876689        0.7350855738
 C         -5.0799877289        2.8927251300        1.1336737641
 C         -5.7266939701        1.6634515966        1.0525452759
 C         -7.1836411790        1.5389168520        1.4651792225
 C         -7.3191091177        1.9240839839        2.9449960967
 C         -8.0288251973        2.4859184098        0.6018348225
 C         -7.7266253036        0.1182339856        1.2881613274
 C         -4.9775302476        0.5839673441        0.6113280620
 C         -3.6502988889        0.6986191770        0.2214289093
 C         -2.9069609069       -0.5643826915       -0.2158759480
 C         -3.3317271878       -1.6887490831        0.7026031841
 C         -2.9672703945       -1.9124939777        2.0099600523
 C         -3.5397817567       -2.9847857361        2.6827536406
 C         -4.4702389105       -3.8004513446        2.0586730380
 C         -4.8419955582       -3.5791296237        0.7414339996
 C         -4.2638387151       -2.5212981569        0.0614501293
 C         -4.3928596235       -2.0845206683       -1.3235470699
 C         -5.1354503952       -2.5960253861       -2.3739272682
 C         -5.0131925093       -2.0042274006       -3.6214333558
 C         -4.1642680211       -0.9260274294       -3.8179247688
 C         -3.4232807604       -0.4020757248       -2.7664916090
 C         -3.5414191295       -0.9875185006       -1.5263390288
 H         -2.7672671630       -5.6761079592       -2.1310183082
 H         -1.7109510649       -6.9947711104       -1.6031794138
 H         -2.7633477509       -6.1755176485       -0.4433359187
 H          0.5488355486       -6.4492802921       -1.1379108038
 H          2.3152061081       -4.8253708251       -0.7226385643
 H         -2.4143161103       -3.4086463509       -0.9671684402
 H          3.2972522998       -3.9936605408        0.8170832306
 H          5.6156772722       -3.7598404647        1.4478638253
 H          7.2237925576        0.5920570603        1.7897940208
 H          7.6638219111        0.1815223785        0.1229800263
 H          8.8029278954       -0.1003573396        1.4362613194
 H          8.3978132704       -1.8128983414        3.1532223435
 H          7.0399760452       -2.9303486432        3.0369706410
 H          6.7541811529       -1.2442254267        3.4630531965
 H          9.0897195013       -2.4178483712        0.7569467167
 H          7.9126206484       -2.2601168243       -0.5506659468
 H          7.7303788642       -3.5336595015        0.6538227703
 H          5.4385277725        0.3891862152        0.4934734218
 H          2.2730755381        1.2566775185        2.4769615615
 H          3.2947405317        3.1624806859        3.6830421384
 H          4.9297254770        4.6109518819        2.5707655532
 H          5.5589579684        4.2224730895        0.2139043626
 H          5.7673900408        3.4512031754       -2.2753135464
 H          5.5360083722        2.4128085466       -4.5045574676
 H          4.0297642901        0.5086579336       -4.8460825112
 H          2.7350118870       -0.4287345107       -2.9564708234
 H          2.4018781851        3.4056952917       -0.9976816470
 H          2.6289255461        6.3204587382       -0.4301272122
 H          2.8496489000        5.6118872657       -2.0267919906
 H          1.6931424388        6.9333394536       -1.7959455104
 H         -0.5633204595        6.4461626579       -1.1408811715
 H         -2.3248230564        4.8229424795       -0.7006028525
 H         -3.2873859238        3.9935085177        0.8533093533
 H         -5.5962953615        3.7592310170        1.5178394604
 H         -8.3541445631        1.8253086287        3.2654518291
 H         -6.7026624800        1.2714961912        3.5597914350
 H         -7.0059823316        2.9502016192        3.1168158576
 H         -7.7235489613        3.5202065710        0.7339099604
 H         -7.9212302128        2.2300239304       -0.4502330548
 H         -9.0795332550        2.4037019229        0.8721002077
 H         -8.7745037887        0.0923885627        1.5807463927
 H         -7.6586409874       -0.1994706296        0.2500301306
 H         -7.1859935762       -0.5895225934        1.9128304036
 H         -5.4301434584       -0.3913888519        0.5680822977
 H         -2.2481404468       -1.2722125934        2.4997469000
 H         -3.2589703010       -3.1832719476        3.7066781215
 H         -4.9083733839       -4.6233069632        2.6049279352
 H         -5.5627451605       -4.2214435487        0.2569316650
 H         -5.7936578362       -3.4398622793       -2.2268274147
 H         -5.5839615595       -2.3909141650       -4.4532981332
 H         -4.0797679411       -0.4862408794       -4.8008517678
 H         -2.7652783913        0.4410601005       -2.9199695910
