  81
 
 N          1.4610554521        2.9405796267       -0.4724858879
 C          2.3059518407        2.1494963826       -0.4434956780
 C          3.3154665881        1.2068560195       -0.3594425919
 C          4.6877754156        1.5475554193       -0.3585795215
 C          5.1315440498        2.9176912851       -0.6644508704
 C          4.5110158982        3.6827895596       -1.6463623198
 C          4.9590188327        4.9645558487       -1.9086040325
 C          6.0237127040        5.4921666052       -1.1975115896
 C          6.6524448554        4.7284785746       -0.2274317415
 C          6.2140685604        3.4453992210        0.0362185965
 N          5.6162577543        0.6831745356       -0.0642779369
 C          5.3278364067       -0.6112121386        0.2606994330
 C          6.3789017850       -1.5240134187        0.5884719223
 C          6.0928197740       -2.8588145194        0.9107865450
 C          7.1106344596       -3.7316726136        1.2240750202
 C          8.4308885272       -3.3005164887        1.2248088531
 C          8.7250953837       -1.9817434978        0.9057507344
 C          7.7152378690       -1.0995230832        0.5904872821
 N          4.0604236200       -0.9842027645        0.2388800939
 C          3.0600678190       -0.2052732146       -0.0762048997
 C          1.7336203219       -0.7771577635       -0.1165917628
 C          1.4391237996       -1.8772089948        0.7047648385
 C          0.1794046071       -2.4279290374        0.7216754116
 C         -0.8195268883       -1.9095204950       -0.1028308418
 N         -2.1090982332       -2.4635433527       -0.0976583433
 C         -2.3742617730       -3.7875331333       -0.4118120118
 C         -1.4968978961       -4.8441771672       -0.5916942355
 C         -2.0328061326       -6.0789438476       -0.9156879580
 C         -3.4039288866       -6.2575027965       -1.0703122494
 C         -4.2801116560       -5.1985652245       -0.9217537912
 C         -3.7645779652       -3.9521202016       -0.5938703097
 C         -4.3561633317       -2.6590965597       -0.4007440709
 C         -5.6658482166       -2.2135675321       -0.5461038950
 C         -5.9527915013       -0.8783426451       -0.3588365800
 C         -4.9273906601       -0.0235972037        0.0477554297
 C         -3.5875424422       -0.4407332708        0.2429064708
 C         -2.8674832067        0.7133770148        0.7138376430
 C         -1.5895861754        0.9365707762        1.2189711346
 C         -1.2334041643        2.2141323607        1.6008945222
 C         -2.1383998436        3.2716545533        1.5310259043
 C         -3.4333577857        3.0696819287        1.1019703673
 C         -3.7895310032        1.7903445248        0.6943928115
 N         -5.0226457640        1.3282270443        0.2978181083
 C         -6.1847691984        2.1066542833        0.1823479594
 C         -7.3465642998        1.7380708152        0.8537874737
 C         -8.4872329009        2.5097108393        0.7301956291
 C         -8.4759421310        3.6531729788       -0.0513743078
 C         -7.3173757698        4.0249575340       -0.7133668937
 C         -6.1739875034        3.2557101283       -0.6027622722
 C         -3.2944423175       -1.7733462606       -0.0686105888
 C         -0.5230956185       -0.8518519057       -0.9629823324
 C          0.7309306753       -0.2856604089       -0.9627375819
 H          3.6898839037        3.2744796624       -2.2154515978
 H          4.4727992748        5.5530265008       -2.6722119020
 H          6.3658879577        6.4959601505       -1.4017097060
 H          7.4871806141        5.1341034866        0.3251283179
 H          6.6948778904        2.8427200582        0.7921138969
 H          5.0631411167       -3.1840369752        0.9024259538
 H          6.8818577111       -4.7589645206        1.4698181407
 H          9.2255899956       -3.9890875317        1.4706950795
 H          9.7524874544       -1.6465251499        0.9036933394
 H          7.9315776748       -0.0725280073        0.3361575608
 H          2.2134138843       -2.2639396989        1.3496227641
 H         -0.0521609362       -3.2414381870        1.3932519611
 H         -0.4303930964       -4.7126508794       -0.4943910518
 H         -1.3704899927       -6.9202497828       -1.0548984410
 H         -3.7845646087       -7.2365731377       -1.3198327209
 H         -5.3421485236       -5.3337359203       -1.0594793361
 H         -6.4426815441       -2.9074427728       -0.8265755803
 H         -6.9492542500       -0.4979718764       -0.5197579097
 H         -0.8877990472        0.1294152065        1.3374982920
 H         -0.2347612332        2.3982075015        1.9643808943
 H         -1.8258636527        4.2575866011        1.8385813173
 H         -4.1537259537        3.8737569503        1.0968232782
 H         -7.3433718402        0.8588754683        1.4807273078
 H         -9.3866053269        2.2206924683        1.2532554285
 H         -9.3678600947        4.2541079174       -0.1431178635
 H         -7.3053881611        4.9146604330       -1.3249978557
 H         -5.2730399550        3.5297527278       -1.1309734985
 H         -1.2896777901       -0.4755357145       -1.6233332041
 H          0.9426618237        0.5279893238       -1.6375581301
