  127
 
 C        -11.5726756155       -1.0909869048        5.6774388246
 C        -10.7344682189       -1.5101437562        4.7363541157
 C        -10.4302063130       -0.8418862274        3.4762445992
 C         -9.6236302785       -1.4942419743        2.5421011690
 C         -9.3130196649       -0.9086138968        1.3305554884
 C         -9.7866210103        0.3594364393        1.0221800659
 C         -9.4703504112        1.0104737867       -0.3028135126
 O         -8.3100224891        0.5122242603       -0.9394505066
 C         -7.0934495901        0.7616560802       -0.3939579197
 C         -6.8653694380        1.4612739493        0.7889328495
 C         -5.5732401773        1.6488625011        1.2724751757
 C         -4.4617691788        1.1764598607        0.5991452764
 C         -4.6749004624        0.5021670186       -0.5976629946
 C         -5.9815917088        0.2670288417       -1.0866776467
 C         -5.8414147296       -0.5059375010       -2.2835513909
 C         -6.7453278505       -1.0332848829       -3.1966878722
 C         -6.2551258406       -1.7195982860       -4.2911261036
 C         -4.8810340944       -1.8712391027       -4.4928768535
 C         -3.9643601020       -1.3617397437       -3.5952492731
 C         -4.4463774089       -0.6941255025       -2.4750060235
 N         -3.7570039619       -0.0784026169       -1.4532154386
 C         -2.3736501220       -0.0528251503       -1.2985257297
 C         -1.7090339441        1.1523275750       -0.9703569473
 C         -0.3567561202        1.1847507889       -0.7804581963
 N          0.3047020603        2.3921089061       -0.5070419784
 C          0.2867683352        3.5197908001       -1.2961516333
 C         -0.4203985282        3.7698523967       -2.4657812401
 C         -0.2444240029        4.9971998146       -3.0741891717
 C          0.6160226621        5.9564738923       -2.5395474473
 C          1.3357571327        5.7085577509       -1.3855176140
 C          1.1770380475        4.4815726084       -0.7564602471
 C          1.7536396708        3.8839147135        0.4143722073
 C          2.6916566378        4.3259005875        1.3540932577
 O          3.2081702062        5.5657849718        1.1663097010
 C          4.2005893431        6.0423390087        2.0561183239
 C          5.5009835434        5.2766886595        2.0034957120
 C          6.3522290631        5.2695828888        3.1031269766
 C          7.5511269313        4.5875505447        3.0620692531
 C          7.9361337097        3.8817004134        1.9203153652
 C          9.1881803378        3.1396097314        1.8249506330
 C         10.1101985508        3.0071234694        2.7715888886
 C          7.0741473203        3.8968561208        0.8223691137
 C          5.8785456402        4.5869786073        0.8591883629
 C          3.0140010629        3.4669841645        2.4032399617
 C          2.4162777522        2.2170852044        2.5170654932
 C          1.4925941497        1.7605555920        1.5969260337
 C          1.1877770454        2.5971389662        0.5309000476
 C          0.4412758028       -0.0129251159       -0.9141147978
 C          1.8148264260        0.0306160562       -0.9248433705
 N          2.9800749480        0.0582997192       -0.9408031354
 C         -0.2674594314       -1.2369933548       -1.2125487350
 N          0.4831912059       -2.4186878180       -1.3182496412
 C          0.6166711679       -3.2000587898       -2.4424611886
 C          0.0033902803       -3.0755021818       -3.6821148883
 C          0.3264535498       -3.9981128367       -4.6574787488
 C          1.2425142762       -5.0211083766       -4.4119758952
 C          1.8723679515       -5.1400251047       -3.1866804451
 C          1.5647532541       -4.2229622076       -2.1915046609
 C          2.0179642374       -4.0282971642       -0.8429720930
 C          2.9526429702       -4.6893748739       -0.0388239263
 O          3.6192508816       -5.7278233842       -0.6017378142
 C          4.6624438732       -6.3526751254        0.1228015384
 C          5.8219609434       -5.4430922818        0.4536737871
 C          6.0694473024       -4.2953628703       -0.2886409605
 C          7.1170401073       -3.4574576054        0.0388156375
 C          7.9629013476       -3.7520927214        1.1078699270
 C          9.0707722365       -2.8870238380        1.5006465832
 C          9.2285669291       -1.6141301704        1.1582971553
 C          7.7300614553       -4.9286423171        1.8232580415
 C          6.6698378250       -5.7551488491        1.5102374543
 C          3.1252242429       -4.2309064699        1.2663836630
 C          2.3990846896       -3.1489455037        1.7503523698
 C          1.4870844346       -2.4703409903        0.9654640919
 C          1.3219605897       -2.9088154174       -0.3417652131
 C         -1.6176169730       -1.2432838932       -1.4150585022
 C        -10.5859370879        1.0215766218        1.9478419289
 C        -10.9057801543        0.4307564804        3.1530151505
 H        -12.1334835794       -0.1756366157        5.5955275079
 H        -11.7329856275       -1.6616933289        6.5764433029
 H        -10.2123803286       -2.4486553621        4.8816942780
 H         -9.2405885198       -2.4795979408        2.7676051874
 H         -8.6927357162       -1.4349747781        0.6191277689
 H        -10.2759404325        0.7932412167       -1.0148669883
 H         -9.4045444459        2.1006298846       -0.1861031401
 H         -7.6922479124        1.8463545924        1.3631242085
 H         -5.4423029029        2.1747111511        2.2059510950
 H         -3.4710515210        1.3110577718        1.0022989405
 H         -7.8047998666       -0.8968430439       -3.0469429310
 H         -6.9415264425       -2.1379011092       -5.0124430745
 H         -4.5294951591       -2.3929299484       -5.3705030294
 H         -2.9050122988       -1.4665081662       -3.7677382043
 H         -2.2799574193        2.0651216342       -0.8931242175
 H         -1.0762563045        3.0249554746       -2.8903566833
 H         -0.7823448630        5.2179642636       -3.9842618265
 H          0.7247902973        6.9051461985       -3.0439633206
 H          2.0115933408        6.4421316025       -0.9749310306
 H          3.8130627230        6.0676606520        3.0834574922
 H          4.3706474074        7.0756822556        1.7304897165
 H          6.0700173503        5.8051954181        3.9989443627
 H          8.1920079415        4.6011669041        3.9296821831
 H          9.3487946656        2.6590562065        0.8670629081
 H         10.0162156923        3.4540122550        3.7464767182
 H         11.0078968974        2.4373880641        2.6009700038
 H          7.3450192063        3.3584301164       -0.0749212046
 H          5.2280651588        4.5840674646       -0.0038806026
 H          3.7429252492        3.7581328650        3.1415863417
 H          2.6884970144        1.5876364730        3.3506421290
 H          1.0337315205        0.7906707583        1.6995646528
 H         -0.6921961572       -2.2739820022       -3.8774845476
 H         -0.1364676069       -3.9245631341       -5.6303892915
 H          1.4670388822       -5.7256872419       -5.1990053195
 H          2.5922317143       -5.9207722449       -2.9975622557
 H          5.0001514719       -7.1558595758       -0.5429381581
 H          4.2685513272       -6.8131662764        1.0392101509
 H          5.4296055450       -4.0486470519       -1.1238997188
 H          7.2820029969       -2.5701784791       -0.5524607832
 H          9.7992805763       -3.3529593579        2.1536603126
 H          8.5210616642       -1.0889008991        0.5392688503
 H         10.0733150132       -1.0418032661        1.5021348200
 H          8.3801952624       -5.1853464644        2.6477344376
 H          6.4953025327       -6.6513102575        2.0891938695
 H          3.8374046550       -4.7063387622        1.9205804906
 H          2.5603531345       -2.8323357656        2.7696831824
 H          0.9277652888       -1.6330019124        1.3505218387
 H         -2.1238105377       -2.1767482659       -1.6096004992
 H        -10.9589075756        2.0101407489        1.7187564593
 H        -11.5239282534        0.9695560637        3.8539760768
