  138
 
 O        -10.9342552418       -0.5344561705        0.6495451250
 P         -9.6149225525       -0.0979918171        0.1522990654
 C         -9.6360393510        0.3093065470       -1.6192319968
 C         -8.4728626920        0.5573753470       -2.3364731372
 C         -8.5495785482        0.8238600953       -3.6911879192
 C         -9.7809529524        0.8482857730       -4.3281276399
 C        -10.9417436248        0.6003956853       -3.6127069749
 C        -10.8686302826        0.3258177918       -2.2584876079
 C         -9.0266384687        1.3661925161        1.0573568557
 C         -9.5333906950        2.6033225639        0.6837799824
 C         -9.2168363993        3.7302944709        1.4213003707
 C         -8.4049360660        3.6156639958        2.5387266593
 C         -7.9208178797        2.3766350345        2.9258891716
 C         -8.2330247636        1.2480877916        2.1880120503
 C         -8.3599751946       -1.4080960843        0.3120584879
 C         -8.8581623933       -2.7007666087        0.4319373843
 C         -8.0289584763       -3.8131767940        0.4994921214
 C         -6.6563176237       -3.6698113499        0.4439468344
 C         -6.1326211865       -2.3884006395        0.3311957101
 C         -6.9793760567       -1.2644901511        0.2649120178
 O         -6.2640337597       -0.1057313302        0.1679970760
 C         -4.9489931033       -0.4651768654        0.1716034617
 C         -3.8364746606        0.3633353505        0.1026077480
 P         -3.8110133620        2.1851847400        0.0594163232
 O         -2.4525566224        2.6830099685       -0.2369543483
 C         -4.3664801693        2.7498352726        1.7007418556
 C         -4.7288926929        4.0830948214        1.8389904892
 C         -4.9918063774        4.6005324975        3.0941061995
 C         -4.8827757806        3.7893047182        4.2129699976
 C         -4.5126364791        2.4611696406        4.0759854356
 C         -4.2497202169        1.9399327911        2.8202565164
 C         -5.0271470251        2.7604994721       -1.1609920785
 C         -6.3670011950        2.9535226397       -0.8566240119
 C         -7.2161159378        3.4669409858       -1.8209558989
 C         -6.7351871298        3.7750271499       -3.0836479974
 C         -5.3991205549        3.5697835659       -3.3906100515
 C         -4.5438086892        3.0667171289       -2.4270872371
 C         -2.5896475214       -0.2472129196        0.1074931685
 C         -2.4164536561       -1.6316913094        0.1925987098
 C         -1.0632126247       -2.2073140359        0.2080237866
 C         -0.0581990365       -1.6920735840       -0.6075602158
 C          1.2140784776       -2.2278324640       -0.5831591142
 C          1.5265893966       -3.2850137175        0.2655099118
 C          2.9118326331       -3.8973257519        0.2473110425
 C          4.0108280855       -2.8629794111        0.0994596400
 C          3.9122361586       -1.6337341856        0.7425587047
 C          4.9351662833       -0.7095196873        0.6619670118
 C          6.0980932739       -0.9915361570       -0.0516392103
 C          7.1886354124       -0.0096803227       -0.1384073390
 C          6.9170604311        1.3463088722       -0.3134008365
 C          7.9393445607        2.2708471839       -0.3959650582
 C          9.2652978513        1.8560728234       -0.3108039191
 N         10.3091484332        2.7908071036       -0.3978156438
 C         10.4732853272        3.7301007210       -1.3959679562
 C          9.7085837733        3.9566087841       -2.5322006679
 C         10.1147210736        4.9564359517       -3.3952557194
 C         11.2579840308        5.7137231489       -3.1459531576
 C         12.0348970983        5.4787998936       -2.0289580067
 C         11.6474404279        4.4785247451       -1.1461790492
 C         12.2106288150        3.9597941979        0.0689007013
 C         13.3336618812        4.2862564286        0.8187615585
 C         13.5825976852        3.5814852248        1.9797386235
 C         12.7199332079        2.5723196396        2.4041049070
 C         11.5968619001        2.2293895017        1.6757573975
 C         11.3542322227        2.9177823811        0.4949461217
 C          9.5476300035        0.5039556410       -0.1377011501
 C          8.5199224476       -0.4135810202       -0.0502952642
 C          6.2004093118       -2.2305208377       -0.6796816659
 C          5.1735588212       -3.1518416270       -0.6039476974
 C          2.9380083010       -4.9614474878       -0.8351788075
 C          2.6927973289       -4.8232474846       -2.1848449331
 C          2.7621973051       -5.9499966097       -2.9938583671
 C          3.0679696306       -7.1920177833       -2.4579160637
 C          3.3078668496       -7.3384890555       -1.1008454732
 C          3.2394311572       -6.2175703869       -0.2892222658
 C          3.4324072638       -6.0660007224        1.1444530576
 C          3.7533534221       -6.9949870282        2.1211520451
 C          3.8685632791       -6.5659333753        3.4339191596
 C          3.6717639627       -5.2334637372        3.7646444511
 C          3.3542780050       -4.2976562860        2.7889455473
 C          3.2297114970       -4.7203622228        1.4824559013
 C          0.5216174345       -3.8104660235        1.0679020438
 C         -0.7535579931       -3.2790551732        1.0413580793
 C         -3.5384671823       -2.4475108193        0.2763365048
 C         -4.7954776001       -1.8626371639        0.2624580756
 H         -7.5187362156        0.5494616963       -1.8326565335
 H         -7.6456177515        1.0155654180       -4.2499530836
 H         -9.8350870914        1.0576311883       -5.3862954499
 H        -11.9009559462        0.6170700475       -4.1090161525
 H        -11.7564403314        0.1179583033       -1.6770046184
 H        -10.1791639462        2.6650663989       -0.1830024139
 H         -9.6044089692        4.6951353667        1.1287239111
 H         -8.1559350212        4.4922579676        3.1171368137
 H         -7.3000990940        2.2900511162        3.8045215123
 H         -7.8695782383        0.2748311672        2.4894342015
 H         -9.9317278307       -2.8154574136        0.4819723783
 H         -8.4666740744       -4.7950807226        0.5937212218
 H         -6.0007859413       -4.5250104258        0.4905429298
 H         -4.7932481292        4.7063841874        0.9564820361
 H         -5.2717519357        5.6381355067        3.2014923496
 H         -5.0819684983        4.1945433693        5.1942288403
 H         -4.4209537286        1.8307200997        4.9488017508
 H         -3.9489586447        0.9069536112        2.7063209428
 H         -6.7344569595        2.7085261188        0.1288063965
 H         -8.2565358804        3.6274653369       -1.5841310770
 H         -7.4040751867        4.1788005745       -3.8292334643
 H         -5.0232738403        3.8093021318       -4.3746516792
 H         -3.4916996640        2.9211831468       -2.6308925835
 H         -1.7261538603        0.4013012940        0.0631826639
 H         -0.2810804627       -0.8753343283       -1.2784398824
 H          1.9778477205       -1.8102956836       -1.2230263336
 H          3.0220879127       -1.3921721116        1.3054590566
 H          4.8400285361        0.2347897515        1.1782030676
 H          5.8928728256        1.6788065929       -0.3970753276
 H          7.7161225405        3.3205532904       -0.5177236888
 H          8.8297494061        3.3657320152       -2.7425800645
 H          9.5343863129        5.1537829212       -4.2850702165
 H         11.5407973817        6.4886908117       -3.8434788596
 H         12.9288876440        6.0556245272       -1.8434071956
 H         13.9938517038        5.0786930715        0.4985504947
 H         14.4520794609        3.8180986559        2.5757141046
 H         12.9324889530        2.0486291208        3.3249690927
 H         10.9258362901        1.4571396398        2.0209186440
 H         10.5757864513        0.1777084948       -0.0828855164
 H          8.7518206044       -1.4576379729        0.1000097622
 H          7.0855841317       -2.4684993754       -1.2514203346
 H          5.2775085526       -4.1053923388       -1.1011788764
 H          2.4543903976       -3.8596863407       -2.6099138328
 H          2.5760228558       -5.8565729845       -4.0540269161
 H          3.1176423006       -8.0551286042       -3.1062382085
 H          3.5424877254       -8.3075256912       -0.6856716010
 H          3.9101384942       -8.0327225893        1.8663493291
 H          4.1166201192       -7.2764227195        4.2094008168
 H          3.7674234643       -4.9187255681        4.7938033811
 H          3.2035722201       -3.2613479401        3.0528225602
 H          0.7385100441       -4.6386926480        1.7263601582
 H         -1.5115063849       -3.6864006261        1.6942058620
 H         -3.4394770653       -3.5200232508        0.3307980234
