  100
 
 N         11.8741779580        3.8141143412        1.6114162339
 C         10.8864657919        3.2754707391        1.3848631351
 C          9.6696198851        2.6133976282        1.1045822534
 C          8.4508720766        3.2599859956        1.3520678229
 C          7.2813288401        2.5985972992        1.0737831727
 C          7.2927081516        1.2995415753        0.5515504692
 C          8.5138702124        0.6402516485        0.2969296207
 C          9.6964362638        1.3253318120        0.5855256403
 C          8.5094437212       -0.7116726431       -0.2489098855
 C          9.6874604808       -1.4073677032       -0.5306319400
 C          9.6521166741       -2.6950489342       -1.0501873996
 C         10.8645617924       -3.3674780430       -1.3248025365
 N         11.8487411033       -3.9139046583       -1.5479691385
 C          8.4290827028       -3.3307430977       -1.3046053142
 C          7.2639494362       -2.6587981916       -1.0332329897
 C          7.2839267025       -1.3598439631       -0.5110050039
 C          6.0315761135       -0.6870625427       -0.2447571235
 N          4.8989570486       -1.3233303450       -0.4958316374
 C          3.7505696446       -0.6810649838       -0.2486414544
 C          2.5176845256       -1.3218303767       -0.4759651356
 C          1.3294562857       -0.6810060709       -0.2276782443
 C          0.0661415282       -1.4142688970       -0.3914008063
 C         -0.1846988035       -2.1547240160       -1.5453366362
 C         -1.3624176167       -2.8552642834       -1.6957448840
 C         -2.3224436553       -2.8539816402       -0.6814215447
 N         -3.5129653924       -3.5648975969       -0.8298555593
 C         -4.0904834382       -4.2147848821        0.2693143980
 C         -3.2878919092       -4.8399424610        1.2237931945
 C         -3.8625118404       -5.4828272323        2.3034590816
 C         -5.2403470466       -5.5218608250        2.4456127731
 C         -6.0421153213       -4.9061540572        1.4979193159
 C         -5.4765272261       -4.2527247599        0.4196911392
 C         -4.1301723515       -3.6399106529       -2.0869861421
 C         -4.7303076067       -4.8245491897       -2.5120294145
 C         -5.3430892138       -4.8887719570       -3.7489788205
 C         -5.3610714924       -3.7814620611       -4.5818469796
 C         -4.7625824208       -2.6031001289       -4.1653485768
 C         -4.1548339760       -2.5266109797       -2.9268036248
 C         -2.0645832910       -2.1288177736        0.4843852216
 C         -0.8921360734       -1.4185294495        0.6220167734
 C          1.3338407547        0.6739451423        0.2329981927
 C          0.0756822550        1.4169616307        0.3906913867
 C         -0.1712816617        2.1668964520        1.5394309709
 C         -1.3441229035        2.8767350544        1.6840449113
 C         -2.3038827146        2.8748787163        0.6693133220
 N         -3.4895919303        3.5942833340        0.8118622743
 C         -4.1038316606        3.6906837644        2.0690953371
 C         -4.6962452530        4.8850584005        2.4773691506
 C         -5.3070783656        4.9712250944        3.7139369281
 C         -5.3307935920        3.8763591475        4.5629563225
 C         -4.7400601468        2.6883670328        4.1630693041
 C         -4.1343105555        2.5899506034        2.9250709142
 C         -4.0688171402        4.2307104501       -0.2946072541
 C         -5.4551132426        4.2671005244       -0.4426316488
 C         -6.0227117002        4.9068027930       -1.5280290289
 C         -5.2226043148        5.5099778502       -2.4851290978
 C         -3.8444968468        5.4727360280       -2.3450335095
 C         -3.2678926282        4.8436085371       -1.2583154651
 C         -2.0497850480        2.1400170389       -0.4913421493
 C         -0.8818527891        1.4214472743       -0.6235270404
 C          2.5264079956        1.3046759094        0.4870074855
 C          3.7548916221        0.6530625151        0.2668915379
 N          4.9075917859        1.2848624895        0.5212893836
 C          6.0359153653        0.6382576421        0.2774146855
 H          8.4454495980        4.2611839046        1.7553395142
 H          6.3228236476        3.0605524274        1.2501729097
 H         10.6588821688        0.8708634360        0.4131514494
 H         10.6529280056       -0.9615781326       -0.3525931159
 H          8.4169288585       -4.3319096927       -1.7078045137
 H          6.3024056422       -3.1120698338       -1.2154122353
 H          2.5340298342       -2.3447449470       -0.8206431954
 H          0.5465562045       -2.1647607895       -2.3406299043
 H         -1.5454825093       -3.4171927816       -2.5998472142
 H         -2.2136473722       -4.8215038047        1.1100603803
 H         -3.2291260759       -5.9655034904        3.0336247909
 H         -5.6859223763       -6.0293002833        3.2880301673
 H         -7.1171783151       -4.9273643675        1.6026258743
 H         -6.1042201830       -3.7666113110       -0.3129419134
 H         -4.7101528913       -5.6915612128       -1.8677972247
 H         -5.8027048203       -5.8130043812       -4.0677720223
 H         -5.8383060674       -3.8367230382       -5.5487592576
 H         -4.7772278314       -1.7329421304       -4.8055613230
 H         -3.6982032816       -1.6038846289       -2.5989317307
 H         -2.7954507097       -2.1237591622        1.2794370386
 H         -0.7080433932       -0.8678807413        1.5323249029
 H          0.5591729417        2.1771020625        2.3354621602
 H         -1.5235180580        3.4463924493        2.5840193321
 H         -4.6716616177        5.7422599385        1.8202676693
 H         -5.7607160362        5.9028010415        4.0195901475
 H         -5.8064213825        3.9486646004        5.5295355308
 H         -4.7594202903        1.8277609356        4.8159413036
 H         -3.6838481706        1.6596838444        2.6102500853
 H         -6.0813597106        3.7906182793        0.2975332744
 H         -7.0979614138        4.9267514234       -1.6310014607
 H         -5.6696612983        6.0063467549       -3.3333527961
 H         -3.2124988495        5.9458916742       -3.0825908067
 H         -2.1934468256        4.8264531121       -1.1462771742
 H         -2.7800762531        2.1339451261       -1.2868978307
 H         -0.7006810166        0.8644608311       -1.5305243414
 H          2.5499363001        2.3276038199        0.8312051634
