52
 xtb: 6.7.1 (edcfbbe)
C           -5.06515357937004       -0.03083923663253       -0.71176786493155
C           -3.92829514561568       -0.00448772559354        0.32638130445889
C           -4.50839590550962        0.01402467873169        1.75242894832768
C           -3.11064796690999        1.25676783213411        0.11884379985963
C           -3.72311182249343        2.49727671061569        0.23395842513210
C           -3.02702821165605        3.67920394403820        0.05919111990008
C           -1.67710005316328        3.63224425468044       -0.23786794300654
C           -1.04274738206070        2.41342862433369       -0.35744952048553
C           -1.74615962476342        1.21829376663094       -0.18453799883976
N           -1.08079492084208        0.00928536531067       -0.30980472878791
C            0.30566570527732        0.01606951732686       -0.61553755837796
C            0.72531625588448        0.06761570766263       -1.94857007234377
C            2.06884101683271        0.07419440950407       -2.23794094230854
C            3.02412472825524        0.03187197195111       -1.21753313019802
C            4.45952949385581        0.03999968700969       -1.54376102949687
O            4.88279761947223        0.08893584929908       -2.68552435775198
C            5.33120482017908       -0.00023698342809       -0.35851999856460
C            6.72119032417419        0.00781443241456       -0.50469479474997
C            7.54437359616349       -0.02837551262795        0.59755760063900
C            6.98991463686141       -0.07377711680083        1.87459247960577
C            5.62266275694546       -0.08294626269878        2.04463917930368
C            4.78446470239492       -0.04621604886058        0.92920270579303
O            3.44882148864591       -0.06655540413294        1.16469877004700
C            2.59578936601902       -0.01802032881597        0.11504731132387
C            1.23284119952359       -0.02662509521891        0.41033670369711
C           -1.72712866073325       -1.20721501929852       -0.14942608675841
C           -1.00892159570124       -2.39590570809161       -0.30489216584587
C           -1.62405741797917       -3.62052333047182       -0.14966996492631
C           -2.97011594564918       -3.67982762975544        0.16246242456098
C           -3.68305657017067       -2.50427974704272        0.31016705520022
C           -3.09005666939732       -1.25818040826763        0.15898406092721
H           -5.69035011905369       -0.88996160709841       -0.59662824436933
H           -4.64786778659809       -0.01310381851246       -1.71702216131389
H           -5.69402513054727        0.87061071478823       -0.60545280364849
H           -3.69956122303071        0.00986779160640        2.48078238690038
H           -5.12457590759443        0.88353453933418        1.91752760122496
H           -5.11965524290440       -0.87720817778985        1.92607838732645
H           -4.76086193696064        2.55557015347045        0.49693143473715
H           -3.50956592591754        4.62850332193871        0.20245612879789
H           -1.09125876925360        4.53720692352723       -0.34032399063981
H            0.02191438491671        2.37291399214711       -0.57544260134499
H           -0.01432070377801        0.02950939919474       -2.73421738158005
H            2.42695148692249        0.03244850124355       -3.25627700368183
H            7.11677847227923        0.01264242411408       -1.50914933133019
H            8.61649893777379       -0.00631378615790        0.47597327342845
H            7.63398955238621       -0.02969857218215        2.74092602106622
H            5.17568291006143       -0.03429697127359        3.02627031383441
H            0.91489424492864       -0.01938105470791        1.44113702035217
H            0.03047871496061       -2.36497034219354       -0.56530070256397
H           -1.07256570471649       -4.53230798728335       -0.31073802691426
H           -3.48867189604919       -4.63001538453854        0.24063026456739
H           -4.74867632597490       -2.56038007693720        0.52084490516548
