91

C     -2.704983    5.716495   -1.672419
C     -1.880406    4.970180   -0.605041
C     -0.405592    5.010513   -1.051894
C     -2.031851    5.756743    0.713105
C     -2.310265    3.506409   -0.397443
C     -3.321012    2.894739   -1.162757
C     -3.677844    1.554833   -0.963056
C     -3.026812    0.797474    0.015880
N     -3.347459   -0.579386    0.169483
C     -2.421204   -1.624725    0.146103
C     -0.964132   -1.491598    0.082063
C     -0.183526   -1.972684    1.141436
C      1.204952   -1.828679    1.116816
C      1.833079   -1.216857    0.022144
N      3.254600   -1.050889    0.008435
C      4.108386   -2.141624   -0.395727
C      3.567636   -3.366736   -0.846965
C      4.384258   -4.431200   -1.227881
C      5.761771   -4.296348   -1.168547
C      6.320778   -3.094299   -0.735137
C      5.516252   -1.998436   -0.349268
N      6.104621   -0.755191    0.085819
C      7.528441   -0.615287    0.149912
C      8.252191   -0.209194   -0.981723
C      9.639106   -0.066308   -0.915119
C     10.310611   -0.327440    0.280126
C      9.599326   -0.732902    1.410641
C      8.212413   -0.876916    1.346907
C      5.250709    0.345920    0.460690
C      5.791704    1.586470    0.868797
C      4.975394    2.653974    1.244249
C      3.597553    2.506293    1.223182
C      3.038662    1.293289    0.820720
C      3.842922    0.198481    0.427771
C      1.054701   -0.767564   -1.054323
C     -0.334665   -0.908207   -1.026030
N     -3.032201   -2.788748    0.095837
C     -4.377411   -2.519362    0.112024
C     -5.453156   -3.432438    0.029113
C     -5.146427   -4.796999   -0.161836
C     -6.161746   -5.740099   -0.267211
C     -7.483949   -5.329320   -0.181869
C     -7.790224   -3.976222    0.013232
C     -6.787557   -2.977323    0.129174
C     -7.032512   -1.584441    0.367539
C     -8.334682   -1.052286    0.537631
C     -8.565664    0.292262    0.840007
C     -7.496482    1.155656    1.000499
C     -6.198603    0.683211    0.826848
C     -5.946132   -0.663858    0.471599
C     -4.620397   -1.154529    0.253242
C     -2.018168    1.379406    0.784178
C     -1.670174    2.717577    0.578457
H     -2.371055    6.755760   -1.771366
H     -3.768921    5.740130   -1.415482
H     -2.603944    5.250628   -2.658709
H     -0.260753    4.447889   -1.981272
H      0.267735    4.582896   -0.300435
H     -0.075725    6.040278   -1.230457
H     -3.065053    5.722912    1.073688
H     -1.392407    5.363809    1.509740
H     -1.762384    6.810297    0.575721
H     -3.850227    3.438936   -1.941360
H     -4.447718    1.117922   -1.595434
H     -0.657100   -2.456231    1.993263
H      1.802192   -2.189512    1.950908
H      2.492790   -3.513114   -0.913704
H      3.937924   -5.360798   -1.569476
H      6.406124   -5.120921   -1.460398
H      7.404570   -3.028009   -0.705429
H      7.727817   -0.004693   -1.912048
H     10.194373    0.251132   -1.794585
H     11.390811   -0.214572    0.331283
H     10.123558   -0.936248    2.341444
H      7.657314   -1.192407    2.227278
H      6.867184    1.742450    0.900054
H      5.421434    3.595032    1.554086
H      2.953488    3.330588    1.517796
H      1.954775    1.219052    0.820339
H      1.535322   -0.305916   -1.913545
H     -0.920233   -0.556078   -1.872458
H     -4.109211   -5.120467   -0.234556
H     -5.918703   -6.788192   -0.416054
H     -8.285339   -6.059283   -0.261963
H     -8.842709   -3.719929    0.080599
H     -9.211940   -1.686899    0.453804
H     -9.582898    0.652322    0.971432
H     -7.666692    2.194360    1.269733
H     -5.392961    1.385448    1.010731
H     -1.500418    0.822696    1.563222
H     -0.875849    3.136902    1.194196
