  58
 
 O          6.4429786146       -0.6731376151       -2.7107079801
 S          6.0936277554       -1.1964766530       -1.4157580820
 O          6.4159557511       -2.5646753307       -1.1491071142
 C          6.8659672619       -0.1476399810       -0.1770750502
 C          7.9760608538        0.6053889629       -0.5153188910
 C          8.5751708157        1.4064571588        0.4448272071
 C          8.0554311237        1.4601369759        1.7298522539
 C          6.9352123868        0.7124878377        2.0597480269
 C          6.3495299900       -0.0949601919        1.1011393954
 S          4.9060865638       -1.0768387207        1.5301145248
 O          4.2713630661       -0.4486882902        2.6597719940
 O          5.2845801040       -2.4494790783        1.6691686218
 C          3.8214187235       -0.8824215565        0.1133752725
 C          2.4729328401       -0.6815797519        0.3200507475
 C          1.6089215350       -0.5261486280       -0.7676915521
 C          0.1713088911       -0.3390984631       -0.5579397720
 C         -0.5689930124        0.5256771488       -1.3651697193
 C         -1.9222535955        0.6943099202       -1.1720617507
 C         -2.5906167135       -0.0117317091       -0.1677012877
 N         -3.9589844961        0.1430762189        0.0194177090
 C         -4.7442703899       -0.9422155938        0.4371374342
 C         -4.4952985721       -2.2238203720       -0.0516387561
 C         -5.2758356273       -3.2872381938        0.3586108914
 C         -6.3174673939       -3.0898887675        1.2502250864
 C         -6.5719156638       -1.8170004648        1.7337164463
 C         -5.7914817953       -0.7484742212        1.3361613856
 C         -4.5707275903        1.3835851536       -0.2142844950
 C         -3.9325677977        2.5663157566        0.1565792225
 C         -4.5420832344        3.7849730360       -0.0709080207
 C         -5.7942651985        3.8438940825       -0.6604848701
 C         -6.4341623263        2.6707901961       -1.0254754368
 C         -5.8294980391        1.4475037554       -0.8094038383
 C         -1.8518302994       -0.8789495249        0.6426375688
 C         -0.4964432684       -1.0316130131        0.4534834049
 C          2.1503420655       -0.5590450714       -2.0562796483
 C          3.5052369360       -0.7512420111       -2.2546896053
 C          4.3416650508       -0.9224337749       -1.1647841682
 H          8.3444738593        0.5508671085       -1.5276611322
 H          9.4460345217        1.9904503996        0.1890019425
 H          8.5211720027        2.0862854648        2.4754594831
 H          6.4966168926        0.7415902946        3.0447779713
 H          2.1155510003       -0.6248256465        1.3363318348
 H         -0.0730323249        1.0882778203       -2.1419053238
 H         -2.4782972124        1.3689558745       -1.8059094131
 H         -3.6910796410       -2.3774485681       -0.7562988100
 H         -5.0744204278       -4.2751102042       -0.0283663953
 H         -6.9274481739       -3.9225939533        1.5653182014
 H         -7.3796158717       -1.6550182082        2.4319834936
 H         -5.9861465106        0.2423395669        1.7196844430
 H         -2.9615042550        2.5210391938        0.6276648035
 H         -4.0392588493        4.6943199537        0.2234265971
 H         -6.2688355678        4.7977618457       -0.8330014515
 H         -7.4088836553        2.7079294216       -1.4889093073
 H         -6.3263632747        0.5337665710       -1.1007628808
 H         -2.3524994896       -1.4266517909        1.4269386339
 H          0.0529002962       -1.7138772415        1.0840659502
 H          1.4971646421       -0.4533017275       -2.9090641964
 H          3.9383817238       -0.7745564002       -3.2423115986
