176

C     -9.455531   -3.029766    1.148312
C    -10.473479   -2.205763    0.857713
C    -11.796938   -2.545912    1.259407
N    -12.142175   -3.391570    2.206834
C    -13.490394   -3.229672    2.400114
C    -14.309392   -3.845897    3.372477
C    -13.688896   -4.703015    4.307892
C    -14.436580   -5.319489    5.303870
C    -15.803080   -5.085793    5.372498
C    -16.421716   -4.242501    4.439818
C    -15.699228   -3.592890    3.402091
C    -16.273837   -2.742364    2.399531
C    -17.665087   -2.487377    2.322212
C    -18.232215   -1.706883    1.310129
C    -17.425418   -1.158955    0.327198
C    -16.049707   -1.369540    0.369343
C    -15.450568   -2.126179    1.406054
C    -14.034825   -2.335353    1.479555
N    -12.917186   -1.862958    0.779563
C    -12.890259   -0.824645   -0.187453
C    -13.332823    0.456606    0.155843
C    -13.292486    1.475793   -0.802522
C    -12.832649    1.233105   -2.112589
N    -12.833895    2.278640   -3.115254
C    -11.810626    2.305611   -4.136977
C    -10.456508    2.094685   -3.817079
C     -9.477927    2.097655   -4.815693
C     -9.833081    2.316449   -6.145161
C    -11.167072    2.539355   -6.480448
C    -12.147393    2.534656   -5.484139
C    -13.886362    3.270383   -3.146500
C    -13.603844    4.612579   -3.465588
C    -14.621351    5.569487   -3.519791
C    -15.938935    5.202848   -3.254635
C    -16.240346    3.880514   -2.934010
C    -15.224199    2.921597   -2.885917
C    -12.378706   -0.065270   -2.419584
C    -12.392221   -1.086711   -1.465023
C     -8.057348   -2.620883    0.986510
C     -7.536164   -2.176787   -0.230485
C     -6.228478   -1.672233   -0.297711
C     -5.426211   -1.595958    0.852699
C     -4.139047   -0.882158    0.839193
C     -3.969879    0.234060    1.675197
C     -2.798132    0.988749    1.642379
C     -1.748150    0.656021    0.768736
N     -0.583843    1.502265    0.689098
C     -0.753100    2.940069    0.747560
C     -1.749191    3.581931   -0.008295
C     -1.922056    4.968497    0.068669
C     -1.101908    5.731338    0.901118
C     -0.107387    5.114306    1.656984
C      0.065498    3.729606    1.580069
C      0.748186    0.952865    0.662497
C      1.113687   -0.134201    1.472578
C      2.461079   -0.510524    1.604045
C      3.475601    0.176299    0.919228
C      4.908381   -0.027387    1.212547
C      5.377528    0.067241    2.532586
C      6.745468    0.154848    2.808300
C      7.685971    0.136026    1.770469
C      9.056804    0.566547    2.081864
C     10.174714    0.353164    1.363563
C     11.337177    1.110937    1.700288
N     11.340770    2.241818    2.375698
C     12.602441    2.757932    2.275056
C     13.070595    4.007816    2.740882
C     12.129247    4.886117    3.320201
C     12.519963    6.142623    3.770871
C     13.848794    6.526400    3.648640
C     14.784885    5.651197    3.081031
C     14.432580    4.357947    2.607944
C     15.340614    3.401431    2.045891
C     16.731813    3.644636    1.942165
C     17.627998    2.692363    1.451134
C     17.162841    1.449412    1.055482
C     15.800640    1.165301    1.132961
C     14.870681    2.133116    1.582506
C     13.461441    1.872208    1.629512
N     12.609027    0.847441    1.183618
C     12.941959   -0.198439    0.281555
C     13.580867    0.112253   -0.924025
C     13.980776   -0.918017   -1.778772
C     13.756028   -2.268145   -1.451268
N     14.279434   -3.326282   -2.282243
C     13.528401   -4.543821   -2.481234
C     14.162517   -5.798950   -2.414411
C     13.443822   -6.981308   -2.606880
C     12.079721   -6.927795   -2.880476
C     11.430783   -5.695035   -2.953471
C     12.149823   -4.512579   -2.751461
C     15.598700   -3.197779   -2.865729
C     16.661237   -2.625571   -2.139798
C     17.934633   -2.501617   -2.701302
C     18.170675   -2.954285   -3.997534
C     17.135434   -3.527017   -4.732407
C     15.860390   -3.649090   -4.171687
C     13.054880   -2.553325   -0.263148
C     12.645132   -1.528320    0.598512
C      7.234230   -0.058856    0.461550
C      5.861673   -0.144181    0.188005
C      3.089049    1.194365    0.030934
C      1.751477    1.575220   -0.097535
C     -1.892394   -0.485672   -0.033757
C     -3.077119   -1.241429   -0.002598
C     -5.937873   -2.114790    2.052103
C     -7.236895   -2.624288    2.119445
H     -9.624950   -3.987248    1.634783
H    -10.276780   -1.229048    0.427950
H    -12.614521   -4.879216    4.258209
H    -13.951939   -5.975946    6.020338
H    -16.396089   -5.564766    6.147644
H    -17.494220   -4.103432    4.544761
H    -18.350882   -2.911215    3.051876
H    -19.307351   -1.547211    1.288270
H    -17.863952   -0.574599   -0.478352
H    -15.468944   -0.957571   -0.447700
H    -13.697277    0.680321    1.155821
H    -13.621146    2.474087   -0.515558
H    -10.156625    1.944055   -2.783203
H     -8.435947    1.931632   -4.552658
H     -9.070349    2.318721   -6.921007
H    -11.448468    2.717101   -7.515567
H    -13.187537    2.692580   -5.768506
H    -12.580259    4.923114   -3.664906
H    -14.381526    6.599430   -3.769995
H    -16.730724    5.948573   -3.298072
H    -17.267889    3.591008   -2.729963
H    -15.489422    1.890181   -2.663827
H    -12.033975   -0.300353   -3.423977
H    -12.050071   -2.080460   -1.747459
H     -8.149699   -2.182135   -1.128878
H     -5.859435   -1.293109   -1.247627
H     -4.769818    0.543781    2.345392
H     -2.708671    1.847537    2.307643
H     -2.389055    3.004453   -0.670229
H     -2.690837    5.457574   -0.527578
H     -1.239545    6.807970    0.960249
H      0.528506    5.703594    2.310791
H      0.829961    3.257458    2.194748
H      0.366441   -0.644635    2.079948
H      2.714127   -1.314722    2.291199
H      4.675780    0.180362    3.357855
H      7.063378    0.318469    3.836370
H      9.116115    1.225322    2.950731
H     10.164956   -0.279638    0.483002
H     11.082901    4.590022    3.406618
H     11.787418    6.817072    4.207620
H     14.163343    7.506605    3.998265
H     15.808602    6.008996    3.017466
H     17.159006    4.590311    2.270618
H     18.690073    2.920939    1.401241
H     17.858777    0.693762    0.699925
H     15.493578    0.159597    0.865769
H     13.789083    1.143526   -1.204596
H     14.486637   -0.659874   -2.709181
H     15.226933   -5.860244   -2.191466
H     13.953113   -7.940324   -2.548119
H     11.521234   -7.848956   -3.037525
H     10.366264   -5.653364   -3.169055
H     11.628523   -3.559094   -2.833408
H     16.504991   -2.288178   -1.117766
H     18.741175   -2.061595   -2.120358
H     19.162192   -2.862265   -4.433372
H     17.318995   -3.883643   -5.743243
H     15.064270   -4.088381   -4.770025
H     12.864341   -3.585445    0.021461
H     12.155676   -1.793149    1.533643
H      7.928051   -0.053687   -0.376406
H      5.539463   -0.223448   -0.848554
H      3.842170    1.763192   -0.512212
H      1.504135    2.406972   -0.755377
H     -1.097697   -0.772934   -0.718338
H     -3.159408   -2.115626   -0.643343
H     -5.338860   -2.081433    2.961071
H     -7.620292   -2.960476    3.078394
