84

C      8.515723    2.003552    1.200543
C      8.018846    1.206949   -0.033973
C      9.069675    1.294347   -1.171352
C      7.872320   -0.266112    0.372065
C      9.000658   -0.979297    0.849515
C      8.920030   -2.316740    1.229402
C      7.707529   -2.976283    1.140972
C      6.584352   -2.293092    0.673400
C      6.637129   -0.933662    0.281392
N      5.461704   -0.254410   -0.196966
C      4.218318   -0.964690   -0.274649
C      3.863068   -1.644566   -1.447921
C      2.651901   -2.336271   -1.520450
C      1.780845   -2.356416   -0.421438
C      0.494813   -3.089480   -0.556197
O      0.189085   -3.676956   -1.587239
C     -0.493392   -3.085062    0.586263
O     -0.188309   -3.665573    1.621425
C     -1.779074   -2.352440    0.445842
C     -2.128620   -1.679331   -0.731652
C     -3.341865   -0.988746   -0.808597
C     -4.217193   -0.963126    0.287365
N     -5.461621   -0.255398    0.202919
C     -5.521624    1.124697    0.607081
C     -4.370930    1.793202    1.090536
C     -4.399946    3.130100    1.489197
C     -5.585126    3.839150    1.414359
C     -6.732068    3.206404    0.941566
C     -6.725234    1.849188    0.532133
C     -8.019243    1.202482    0.018298
C     -8.501487    2.001333   -1.220410
C     -9.083921    1.287173    1.142836
C     -7.866788   -0.269623   -0.388814
C     -8.989484   -0.983504   -0.878514
C     -8.903611   -2.320251   -1.259399
C     -7.691365   -2.978604   -1.159464
C     -6.573581   -2.294672   -0.679972
C     -6.631679   -0.935660   -0.287219
C     -3.864978   -1.639042    1.463825
C     -2.653400   -2.329442    1.542194
C      2.133762   -1.679933    0.753129
C      3.346735   -0.988211    0.824256
C      5.515501    1.127016   -0.597441
C      4.359191    1.794586   -1.068542
C      4.381734    3.132999   -1.462583
C      5.566050    3.844267   -1.396019
C      6.718707    3.212151   -0.936393
C      6.718402    1.853555   -0.531486
H      7.786424    1.955146    2.019098
H      9.467009    1.622938    1.588049
H      8.682990    3.062299    0.974777
H     10.042056    0.886849   -0.873962
H      9.257654    2.326046   -1.487841
H      8.738132    0.736325   -2.056194
H      9.969851   -0.491686    0.930958
H      9.802465   -2.837094    1.591397
H      7.626891   -4.019947    1.432566
H      5.655161   -2.854432    0.621256
H      4.535546   -1.634106   -2.302723
H      2.394183   -2.859970   -2.439521
H     -1.485187   -1.684395   -1.607870
H     -3.615078   -0.470881   -1.725667
H     -3.417176    1.278279    1.167658
H     -3.496228    3.608542    1.856310
H     -5.622277    4.880667    1.721819
H     -7.646963    3.793458    0.895418
H     -9.444537    1.616943   -1.624407
H     -8.678243    3.058305   -0.992389
H     -7.759411    1.960561   -2.027891
H     -8.763630    0.727086    2.030330
H    -10.052535    0.880741    0.832408
H     -9.275947    2.318101    1.459475
H     -9.958205   -0.496706   -0.969288
H     -9.781811   -2.840915   -1.630992
H     -7.606515   -4.021729   -1.451487
H     -5.644383   -2.855156   -0.618780
H     -4.540238   -1.626880    2.316362
H     -2.398102   -2.850382    2.463507
H      1.493023   -1.683028    1.631464
H      3.622458   -0.467628    1.739058
H      3.406177    1.277711   -1.139322
H      3.473748    3.610702   -1.819772
H      5.598289    4.886954   -1.700201
H      7.632870    3.800726   -0.897425
