  107
 
 C         11.9952376423        3.2862484814       -1.9536689195
 C         11.8821675139        1.9081662152       -2.0397236021
 C         10.7203823171        1.2770546214       -1.6333284451
 C          9.6639491205        2.0276874969       -1.1266364400
 N          8.4838464512        1.3887932273       -0.7067585162
 C          7.2085313367        1.7015433395       -1.1175495509
 C          6.8012315157        2.6575547958       -2.0378396653
 C          5.4471180754        2.8083191323       -2.2589032430
 C          4.5188439574        2.0371535142       -1.5633156084
 C          4.9203361563        1.0664866097       -0.6676937636
 C          6.2808100413        0.8549497615       -0.4607150140
 C          7.0570421464       -0.0300012418        0.3673449002
 C          8.4096998636        0.3656248507        0.2126525758
 C          9.4588212641       -0.1642197840        0.9649734130
 C          9.1761244538       -1.1298104906        1.9024338186
 C          7.8677823197       -1.5949048841        2.0377384062
 C          7.2990397147       -2.5907687059        2.9010894368
 C          7.8315461843       -3.4222755988        3.8784641163
 C          6.9930655714       -4.3138368228        4.5178313554
 C          5.6439763726       -4.3947130539        4.1810580585
 C          5.0932434588       -3.5787668935        3.2097317799
 C          5.9254716080       -2.6631024184        2.5842567528
 N          5.6419428203       -1.7515004945        1.5766559216
 C          4.4617285951       -1.7883811535        0.8270487109
 C          3.2263343044       -1.6401173251        1.4563039338
 C          2.0619858044       -1.7117263215        0.7201439125
 C          2.1155389759       -1.9389992562       -0.6558390834
 C          0.9044845464       -2.0177780735       -1.4347331959
 N          0.8062408537       -2.2404879691       -2.7144893132
 N         -0.4995452761       -2.2343665163       -3.0219503247
 C         -1.1567819444       -2.0069114334       -1.9202376547
 C         -2.5871566187       -1.9094282167       -1.7654009983
 C         -3.4147360952       -2.1025080198       -2.8737201852
 C         -4.7832834315       -2.0064098618       -2.7397583489
 C         -5.3464858546       -1.7119752148       -1.4972324948
 N         -6.7347211911       -1.6397917742       -1.3467233849
 C         -7.5833183247       -2.7115616976       -1.5876443083
 C         -7.3302794438       -3.9135862281       -2.2303807815
 C         -8.3635208306       -4.8286449596       -2.3184065795
 C         -9.6164928072       -4.5645805752       -1.7703812665
 C         -9.8642431629       -3.3808590684       -1.1038968408
 C         -8.8414325819       -2.4457902100       -1.0050691062
 C         -8.7400377954       -1.1590235757       -0.3760920186
 C         -9.6593098650       -0.4172250748        0.3663596150
 C         -9.2863695757        0.7999255904        0.8872867538
 C         -8.0096580323        1.2869207969        0.6038323321
 C         -7.0712439496        0.5965450451       -0.2036774373
 C         -5.9607313367        1.4927592548       -0.3889980355
 C         -4.7976224321        1.4704435328       -1.1542020946
 C         -3.9310962534        2.5433081475       -1.0912567757
 C         -4.1998825126        3.6441507491       -0.2810371608
 C         -5.3694253453        3.7187920801        0.4484529942
 C         -6.2577891910        2.6553797957        0.3654383291
 N         -7.4892186309        2.5114346763        0.9621985153
 C         -8.1261135463        3.4656649334        1.7753374427
 C         -8.2996145044        4.7689184251        1.3200290515
 C         -8.9220117988        5.7041285861        2.1271373942
 C         -9.3823975371        5.3463870661        3.3838340620
 C         -9.2152370052        4.0474222493        3.8355200032
 C         -8.5850887271        3.1081700945        3.0393669625
 C         -7.4311054199       -0.6884119909       -0.6236369010
 C         -4.5190103828       -1.5216943864       -0.3896980895
 C         -3.1508144744       -1.6188141575       -0.5219113511
 O         -0.3163077365       -1.8586408980       -0.8672785848
 C          3.3530557704       -2.0895343896       -1.2860902281
 C          4.5149511390       -2.0145431251       -0.5503557385
 C          6.8114146670       -1.0907193903        1.2460150953
 C          9.7801268999        3.4111636389       -1.0355888089
 C         10.9421664101        4.0345489048       -1.4533143128
 H         12.9024433091        3.7757968970       -2.2748550319
 H         12.6992434349        1.3210608784       -2.4323900218
 H         10.6213248324        0.2044902884       -1.7125941414
 H          7.5225600752        3.2655857543       -2.5626447902
 H          5.1016850293        3.5453978295       -2.9689470211
 H          3.4637947922        2.2000242751       -1.7297127236
 H          4.1806085500        0.4977760456       -0.1303534626
 H         10.4639226374        0.2044108209        0.8312099896
 H          9.9575022381       -1.5337863520        2.5273191846
 H          8.8809126366       -3.3721389897        4.1276083052
 H          7.3868433646       -4.9667617359        5.2830751442
 H          5.0142155553       -5.1126000785        4.6860683069
 H          4.0506259990       -3.6662648984        2.9445336052
 H          3.1889529095       -1.4452716267        2.5173927297
 H          1.1049358887       -1.5855519168        1.2039012887
 H         -2.9609473620       -2.3172529977       -3.8281798394
 H         -5.4251004208       -2.1327420258       -3.5982145814
 H         -6.3590573141       -4.1389622071       -2.6435184969
 H         -8.1929367675       -5.7700135283       -2.8200288478
 H        -10.3997433425       -5.3027854999       -1.8627283478
 H        -10.8304160788       -3.1839933515       -0.6639799723
 H        -10.6522851635       -0.8046684071        0.5338726601
 H         -9.9738118260        1.3868980485        1.4762526827
 H         -4.5733875731        0.6413763688       -1.8041304979
 H         -3.0265510930        2.5282737666       -1.6822057981
 H         -3.4913211772        4.4583894577       -0.2373423680
 H         -5.5892767257        4.5796516670        1.0616856617
 H         -7.9561632670        5.0376858486        0.3320152902
 H         -9.0546696715        6.7144850685        1.7691818262
 H         -9.8711575167        6.0782013564        4.0093689589
 H         -9.5702748610        3.7648308651        4.8156655322
 H         -8.4383998681        2.0981142903        3.3925503662
 H         -4.9603396698       -1.2966177327        0.5691803891
 H         -2.5107559527       -1.4729845946        0.3348696106
 H          3.3753979042       -2.2677094980       -2.3491624340
 H          5.4743898859       -2.1283873373       -1.0309756940
 H          8.9636613414        3.9880291353       -0.6270705174
 H         11.0274140101        5.1087807551       -1.3801164152
