  108
 
 C          9.4201116553        3.3921591563       -3.6273241455
 C          8.7115225502        2.5789061514       -2.5494049540
 C          9.1583336833        1.1177756482       -2.5602130941
 C          8.4029943879        0.2413387882       -1.5604193880
 C          8.7141463465        0.5837368642       -0.1048557991
 C          8.0554135625       -0.3933564075        0.8716572403
 N          6.6158080646       -0.3563068894        0.7910896606
 C          5.8486212747       -1.3770772546        0.2442001615
 O          6.3324897537       -2.4138263738       -0.2055232558
 C          4.4718837314       -0.9233045927        0.2974182988
 C          3.4119567742       -1.5396401299       -0.4232924793
 C          3.4436276549       -2.9167944788       -0.7328294021
 C          2.3949047534       -3.5205697730       -1.3778231317
 C          1.2711688746       -2.7871278707       -1.7922896857
 C          0.1499189621       -3.4337618112       -2.4606211627
 C         -0.2250342743       -4.7430243793       -2.1347081077
 C         -1.3034326619       -5.3484802152       -2.7408150954
 C         -2.0431545244       -4.6652886728       -3.7074157659
 N         -3.1435306711       -5.2695266317       -4.3181555008
 C         -4.3908081448       -4.6952151842       -4.4811922885
 C         -4.8625969607       -3.4652103830       -4.0426993787
 C         -6.1802647845       -3.1449725927       -4.3139895785
 C         -7.0173966161       -4.0262727458       -4.9937559281
 C         -6.5614932631       -5.2649626382       -5.4065423784
 C         -5.2423122399       -5.6073091633       -5.1466641360
 C         -4.4584888194       -6.7870162380       -5.4009989198
 C         -4.7283043858       -7.9923251326       -6.0327511254
 C         -3.7146044969       -8.9276290253       -6.1340094760
 C         -2.4433515113       -8.6637810978       -5.6300927954
 C         -2.1510114544       -7.4691865680       -4.9977247044
 C         -3.1722901929       -6.5376308043       -4.8680941331
 C         -1.6702050276       -3.3653387456       -4.0535490032
 C         -0.5963530829       -2.7628636753       -3.4373728560
 C          1.2675727270       -1.4052708700       -1.5482330127
 C          2.3001797622       -0.7969050533       -0.8839229309
 C          4.4582377839        0.3255204320        0.9933115950
 C          3.3444075690        0.9989914960        1.5666735848
 C          2.1428459522        0.3174855701        1.8692070530
 C          1.0630243228        0.9819588009        2.3890841233
 C          1.1061521875        2.3628540512        2.6340910547
 C         -0.0632474636        3.0725736774        3.1351246134
 C         -0.9732844001        2.4531747476        4.0004903398
 C         -2.0923722200        3.1163248238        4.4523342714
 C         -2.3481132260        4.4265492012        4.0440508106
 N         -3.4949379982        5.0917223299        4.4810608093
 C         -3.5431730159        6.3745694943        4.9941941956
 C         -2.5077558396        7.2600999936        5.2614929799
 C         -2.8325447268        8.4848102410        5.8155647768
 C         -4.1511463084        8.8231170945        6.1096197007
 C         -5.1835073367        7.9339954532        5.8722813244
 C         -4.8815755596        6.6996894131        5.3154652188
 C         -5.6759483254        5.5511510491        4.9682147114
 C         -7.0351325601        5.2793509378        5.0284357317
 C         -7.4850585709        4.0517832172        4.5775603194
 C         -6.5996821043        3.1125379893        4.0547025868
 C         -5.2413782383        3.3622944433        3.9827918730
 C         -4.7800174081        4.5810035867        4.4620169739
 C         -1.4447989092        5.0586866581        3.1879289011
 C         -0.3218008885        4.3934583163        2.7487412943
 C          2.3132636699        3.0342376116        2.3809534003
 C          3.4069381737        2.3732383854        1.8835624627
 C          5.8376903779        0.7016199404        1.2416178938
 O          6.3069531210        1.6998292321        1.7847443295
 H          9.0929434554        4.4292711525       -3.5999861484
 H          9.2043947099        2.9884519017       -4.6146189454
 H         10.4971803783        3.3671775356       -3.4750495059
 H          8.9199379953        3.0210082792       -1.5735402483
 H          7.6310966302        2.6243747382       -2.7094387767
 H         10.2283797650        1.0651659283       -2.3456460454
 H          9.0016789528        0.7115618943       -3.5629733552
 H          7.3275106269        0.3378576195       -1.7339425252
 H          8.6655907969       -0.8057446018       -1.7354491537
 H          8.3615739037        1.5882116892        0.1334484256
 H          9.7931190849        0.5501116267        0.0586565223
 H          8.3507206855       -1.4231099440        0.6501823921
 H          8.3464994681       -0.1375911869        1.8963951628
 H          4.3061790482       -3.4919845286       -0.4346976345
 H          2.4495424622       -4.5774556632       -1.5929725030
 H          0.3120476437       -5.2736493657       -1.3635463219
 H         -1.6029231530       -6.3433126728       -2.4471808460
 H         -4.2298617141       -2.7834683946       -3.4957536905
 H         -6.5694490137       -2.1919815245       -3.9871674762
 H         -8.0400354872       -3.7394396043       -5.1892398699
 H         -7.2170118309       -5.9555353080       -5.9150883491
 H         -5.7078377544       -8.1902100242       -6.4409594887
 H         -3.9045601447       -9.8733148726       -6.6196854145
 H         -1.6665452310       -9.4060624845       -5.7398412981
 H         -1.1562126129       -7.2674950595       -4.6315636486
 H         -2.2131267542       -2.8456726512       -4.8287033340
 H         -0.3037254464       -1.7702287002       -3.7431067100
 H          0.4247546172       -0.8097845824       -1.8656251388
 H          2.2822150611        0.2700729934       -0.7248232209
 H          2.0909753508       -0.7477524633        1.7059209178
 H          0.1544439260        0.4335041222        2.5875663544
 H         -0.7775305512        1.4517771797        4.3519205606
 H         -2.7646979008        2.6356270524        5.1469995624
 H         -1.4799773452        7.0007597152        5.0594212029
 H         -2.0449004241        9.1922103756        6.0291865000
 H         -4.3649658693        9.7903077582        6.5398083764
 H         -6.2028254204        8.1895658561        6.1191720573
 H         -7.7243972154        6.0145979364        5.4151455401
 H         -8.5388367124        3.8191776605        4.6190908621
 H         -6.9822833440        2.1698394520        3.6923458359
 H         -4.5685850674        2.6355852409        3.5545209722
 H         -1.6500322509        6.0615991273        2.8449428741
 H          0.3457515785        4.8858884908        2.0584159213
 H          2.3933988265        4.0875292275        2.6056941911
 H          4.3312781023        2.9008544688        1.7082173565
