  92
 
 N         11.5533307421       -1.5517654464        1.6663378365
 C         10.5144593292       -1.5060273853        1.1810602621
 C          9.2297231664       -1.4416191446        0.6055415344
 C          8.1412627147       -1.0298336845        1.3749087069
 C          6.8659303852       -0.9574448407        0.8297266353
 N          5.8126573519       -0.5625626005        1.5651366709
 C          4.6267058480       -0.5040359945        1.0236742456
 C          4.4214588628       -0.8569425741       -0.3574171599
 N          5.4474872688       -1.2482336570       -1.0944911132
 C          6.6651392306       -1.3154851833       -0.5626091287
 C          7.7705855977       -1.7258421644       -1.3129423760
 C          9.0371932021       -1.7909643911       -0.7455603364
 C         10.1346950966       -2.2096777719       -1.5295069014
 N         11.0144501520       -2.5519217300       -2.1804418245
 C          3.0306306091       -0.6960701043       -0.6646216067
 C          2.2426227404       -0.8636346048       -1.7862659930
 C          0.8748275069       -0.5857530349       -1.6838969226
 C          0.2761725502       -0.1448982999       -0.5155620247
 N         -1.1202620570        0.0949518469       -0.4618814974
 C         -1.9830292241       -0.9928330517       -0.4579270046
 C         -1.5087094865       -2.2891263076       -0.6884475696
 C         -2.3693291151       -3.3624154417       -0.7321558946
 C         -3.7406753630       -3.1934248857       -0.5420093415
 C         -4.6709580685       -4.3240224947       -0.6265956311
 C         -4.3206616285       -5.5800208127       -0.1342152747
 C         -5.2004867209       -6.6419877331       -0.2249172049
 C         -6.4425341471       -6.4702120233       -0.8131563318
 C         -6.8013400063       -5.2267193525       -1.3066229614
 C         -5.9257727281       -4.1617763682       -1.2123750071
 C         -4.2014914434       -1.9109902784       -0.2634583789
 C         -3.3492867203       -0.8225448339       -0.2120314728
 C         -3.9113610440        0.5163737900        0.1828641689
 C         -5.2114658878        0.8021735381       -0.5438143016
 C         -5.4126737718        0.9485285894       -1.8981927300
 C         -6.7009919336        1.1999842195       -2.3519674315
 C         -7.7596172692        1.3016798574       -1.4622722497
 C         -7.5605008215        1.1555504977       -0.0984207201
 C         -6.2780936862        0.9043805910        0.3601992751
 C         -5.7642869284        0.7004260181        1.7063696515
 C         -6.4028061775        0.7007489825        2.9351846995
 C         -5.6497325319        0.4647552936        4.0743381364
 C         -4.2866872665        0.2269508392        3.9899064895
 C         -3.6413941886        0.2248292254        2.7603697145
 C         -4.3846073117        0.4675884836        1.6273536064
 C         -2.9271402892        1.6404189461       -0.0113614283
 C         -3.3929924566        2.9411486203        0.1515832399
 C         -2.5697134526        4.0300360944       -0.0207352493
 C         -1.2447813640        3.8201027540       -0.3882064706
 C         -0.7587121491        2.5109498497       -0.5417289544
 S          0.9220623383        2.5045620681       -1.0548700603
 C          0.9732182162        4.2497590189       -1.0571185234
 C          2.0706323929        5.0278042054       -1.3874943035
 C          1.9388454439        6.4014312835       -1.3326980557
 C          0.7328517661        6.9853219842       -0.9542496934
 C         -0.3577771554        6.2070629026       -0.6257126137
 C         -0.2488400382        4.8198298072       -0.6736257529
 C         -1.5855546081        1.3930210380       -0.3313225615
 C          1.0549301762        0.0330669956        0.6646017290
 C          0.6323222056        0.4735915236        1.9381498696
 C          1.5403172429        0.6005473448        2.9637589816
 C          2.9077620198        0.3115824367        2.8133040979
 C          3.3448786394       -0.1195113280        1.5836582277
 C          2.4104853744       -0.2514727443        0.5330410102
 H          8.2803484127       -0.7610685033        2.4105749820
 H          7.6228448411       -1.9931139136       -2.3476917307
 H          2.6591142095       -1.1929695036       -2.7248821105
 H          0.2532689799       -0.7045922647       -2.5603144860
 H         -0.4540765439       -2.4573688233       -0.8364617834
 H         -1.9732296959       -4.3445985540       -0.9406318047
 H         -3.3612569174       -5.7174964332        0.3427048322
 H         -4.9172569408       -7.6083460721        0.1661354283
 H         -7.1276474868       -7.3016078718       -0.8867629001
 H         -7.7672736906       -5.0876088224       -1.7699257593
 H         -6.2045916040       -3.1991152647       -1.6162321403
 H         -5.2496381068       -1.7566757518       -0.0536639465
 H         -4.5880003361        0.8686506196       -2.5915575797
 H         -6.8801099043        1.3171276693       -3.4104026103
 H         -8.7531608211        1.4972013503       -1.8381176442
 H         -8.3880588043        1.2347728294        0.5905414348
 H         -7.4652857159        0.8795977782        3.0052976763
 H         -6.1309795026        0.4621385458        5.0412339863
 H         -3.7200373722        0.0391854084        4.8898077182
 H         -2.5807919465        0.0278318204        2.6982759473
 H         -4.4286887785        3.0875507325        0.4181535954
 H         -2.9447785359        5.0319854225        0.1100273840
 H          3.0001693909        4.5644549072       -1.6795233641
 H          2.7800495916        7.0283826409       -1.5863725227
 H          0.6525554106        8.0613170296       -0.9187709363
 H         -1.2903895340        6.6649315235       -0.3334889109
 H         -0.4054845097        0.7239088806        2.1049268784
 H          1.1935240675        0.9415318684        3.9285384820
 H          3.5849419502        0.4318919973        3.6445545012
