  126
 
 C         -6.6038917060        5.5808879920       -1.4960174417
 C         -7.3141546530        5.1049186253       -0.2260783513
 C         -8.6881321253        5.7869397390       -0.1608772295
 C         -6.4653513680        5.5234158024        0.9829311739
 C         -7.5094919328        3.5979810016       -0.1941334217
 C         -7.0840406226        2.7584743837       -1.2167351031
 C         -7.2780757409        1.3898271593       -1.1531311079
 C         -7.9083919533        0.8279112778       -0.0531609835
 N         -8.0718361944       -0.5698111273        0.0292642088
 C         -7.0445036837       -1.4837249816        0.1101306560
 C         -5.6308341780       -1.1536405933        0.1456387992
 C         -5.1276710758       -0.0029982829        0.7514697921
 C         -3.7708936945        0.2467311994        0.7559715200
 C         -2.8827382710       -0.6432132869        0.1564612536
 C         -1.4390564604       -0.3634894350        0.1496338683
 C         -0.7619005461        0.0574206971        1.2944974831
 F         -1.4292898926        0.1855698562        2.4521956998
 C          0.5991305633        0.3229169086        1.2852006366
 F          1.1836602618        0.6885222490        2.4372151218
 C          1.3707004906        0.1900970070        0.1294511129
 C          2.8098958695        0.4893829340        0.1190141561
 C          3.7086140785       -0.3586984381       -0.5241135894
 C          5.0602599888       -0.0808826496       -0.5317580151
 C          5.5520234725        1.0537145793        0.1131050775
 C          6.9540358276        1.4261058527        0.1498475492
 N          7.3410968349        2.6756670251        0.2620659450
 C          8.6958705343        2.6528980353        0.2595928098
 C          9.5885960932        3.7593262773        0.3243853007
 C          9.1108846715        5.0719061953        0.3925272770
 C          9.9875656987        6.1273433357        0.4277063134
 C         11.3580940737        5.8792145415        0.3909722887
 C         11.8384483387        4.5918918967        0.3286393695
 C         10.9749478475        3.4861543221        0.2993727133
 C         11.4511005626        2.1134748133        0.2641626265
 C         12.8192092423        1.8102560579        0.3061117681
 C         13.2802851331        0.5150845333        0.3120891643
 C         12.3810846852       -0.5458751112        0.2911151527
 C         11.0324055990       -0.2928144002        0.2426727776
 C         10.5424274693        1.0205646415        0.2105645296
 C          9.1558416458        1.3394721020        0.1591839397
 N          8.0247725385        0.5621414504        0.0776177120
 C          7.9433086389       -0.8403805767       -0.0459959862
 C          7.4396065830       -1.6051980208        0.9981980930
 C          7.3315669800       -2.9740168724        0.8545075230
 C          7.7179661401       -3.6197434228       -0.3185028965
 C          7.5685429105       -5.1285362800       -0.4248019106
 C          8.0503412581       -5.6765398662       -1.7707850038
 C          6.0857350393       -5.4918652476       -0.2619309257
 C          8.3943764304       -5.7931394873        0.6857299538
 C          8.2235435666       -2.8367271370       -1.3508025382
 C          8.3345996575       -1.4640201681       -1.2238418532
 C          4.6448522362        1.9160000849        0.7354935468
 C          3.2966441290        1.6388882353        0.7424578016
 C          0.6928022578       -0.2330256751       -1.0149470061
 F          1.3562534981       -0.3564189950       -2.1756836314
 C         -0.6674553478       -0.5028804605       -1.0043183179
 F         -1.2537320650       -0.8752733000       -2.1533977524
 C         -3.3817257715       -1.8064412677       -0.4287853247
 C         -4.7355497877       -2.0599402369       -0.4263303238
 N         -7.4865573025       -2.7175104195        0.1579303751
 C         -8.8397613253       -2.6328432099        0.1158146326
 C         -9.7839201908       -3.6954855088        0.1817705052
 C         -9.3700062578       -5.0245507595        0.3167250768
 C        -10.2965794736       -6.0328042144        0.4092941332
 C        -11.6538151675       -5.7198638161        0.3719502797
 C        -12.0715577582       -4.4167101631        0.2341770803
 C        -11.1555772602       -3.3590282565        0.1271767196
 C        -11.5644862637       -1.9760919984       -0.0519029862
 C        -12.9142431764       -1.6209595535       -0.1847466047
 C        -13.3099704982       -0.3213079085       -0.3953555973
 C        -12.3600189772        0.6894450532       -0.4991974747
 C        -11.0274737889        0.3856659007       -0.3676727594
 C        -10.6046722006       -0.9292233645       -0.1261026601
 C         -9.2375023749       -1.2991195978        0.0187703772
 C         -8.3389105127        1.6503026598        0.9829009940
 C         -8.1412422597        3.0134483446        0.9030860689
 H         -6.4908976440        6.6624387182       -1.4625104833
 H         -5.6117249436        5.1431968955       -1.5782811089
 H         -7.1796703591        5.3322840292       -2.3845116039
 H         -9.2139249791        5.5370135714        0.7563984151
 H         -9.3030172081        5.4754085176       -1.0028185343
 H         -8.5705504927        6.8674971812       -0.2014083918
 H         -6.9538891187        5.2709287749        1.9198505467
 H         -6.2975360497        6.5979548551        0.9665855217
 H         -5.4994000951        5.0233344808        0.9555421227
 H         -6.5914923384        3.1581374718       -2.0872491168
 H         -6.9378938360        0.7521602957       -1.9557319359
 H         -5.7893489234        0.6940040159        1.2410706242
 H         -3.3992406655        1.1473258746        1.2203448549
 H          3.3508751231       -1.2504049064       -1.0154848948
 H          5.7240217418       -0.7454662511       -1.0610183532
 H          8.0422729472        5.2193808552        0.4101481947
 H          9.6236082771        7.1428687346        0.4791573839
 H         12.0525154134        6.7068116282        0.4117315243
 H         12.9071426503        4.4501360100        0.2995861309
 H         13.5440916739        2.6072020468        0.3433595728
 H         14.3423726899        0.3215070839        0.3450432754
 H         12.7404225310       -1.5640333738        0.3168526553
 H         10.3389474283       -1.1185124008        0.2433316323
 H          7.1310840884       -1.1215845114        1.9131904358
 H          6.9358810073       -3.5436601184        1.6809306827
 H          7.9222320497       -6.7567751625       -1.7871131573
 H          9.1051641044       -5.4624313290       -1.9268554356
 H          7.4744412247       -5.2596912617       -2.5937798677
 H          5.4928841114       -5.0099962322       -1.0367238684
 H          5.7028673372       -5.1775274575        0.7049892772
 H          5.9539492163       -6.5682026455       -0.3467713804
 H          8.0487859176       -5.4960550537        1.6718376380
 H          8.3169170574       -6.8754752673        0.6108576185
 H          9.4423797603       -5.5155415426        0.5930906735
 H          8.5370062502       -3.2850625400       -2.2787864242
 H          8.7273961534       -0.8693586474       -2.0359083425
 H          5.0277799989        2.8062443833        1.2081897585
 H          2.6129133426        2.3229014815        1.2209337476
 H         -2.7034267900       -2.5182073909       -0.8736836027
 H         -5.1287063429       -2.9624023970       -0.8666884354
 H         -8.3097812528       -5.2213680484        0.3513128934
 H         -9.9819696230       -7.0605374938        0.5151399643
 H        -12.3874232029       -6.5091587100        0.4520816585
 H        -13.1323551662       -4.2233934252        0.2134758199
 H        -13.6764369492       -2.3813540110       -0.1312407454
 H        -14.3598060901       -0.0869110595       -0.4929048307
 H        -12.6673169973        1.7077062813       -0.6866884693
 H        -10.2938313743        1.1696845292       -0.4669434470
 H         -8.8282483011        1.2141847290        1.8418484119
 H         -8.4861433404        3.6276291124        1.7205312330
