  63
 
 N          2.6293046609        2.8482786267        1.3350834774
 C          2.0724095590        1.9364343123        0.9172177156
 C          1.3218543926        0.8044509985        0.5254234209
 C         -0.0616717867        0.9127331089        0.4302405976
 C         -0.8359742704       -0.2094647656        0.1616133991
 C         -2.2936367591       -0.0887965596        0.0566966895
 N         -2.8328718460        1.1058939811        0.2700277531
 C         -4.1615052833        1.1691456606        0.1730305574
 C         -4.8083534122        2.4562407081        0.4175831277
 C         -6.1944535272        2.5757537992        0.3137012273
 C         -6.8046664320        3.7919384429        0.5519946450
 C         -6.0411410515        4.8980532963        0.8942506006
 C         -4.6626138793        4.7863268776        0.9976244832
 C         -4.0459554893        3.5728836547        0.7611652673
 N         -4.9303947968        0.1267424663       -0.1299385246
 C         -4.3054349243       -1.0292830387       -0.3344621011
 C         -5.1116260812       -2.1988426261       -0.6771472737
 C         -6.5018830815       -2.0999750868       -0.7353544228
 C         -7.2617949439       -3.2063069668       -1.0626235620
 C         -6.6448323205       -4.4179634047       -1.3360035969
 C         -5.2631189043       -4.5229178014       -1.2795049796
 C         -4.4972432777       -3.4207262604       -0.9521594701
 N         -2.9835171807       -1.1832036763       -0.2439561792
 C         -0.2155254992       -1.4493430632       -0.0023888914
 C          1.1564253359       -1.5649757169        0.0802075724
 C          1.9425175550       -0.4435213358        0.3338841475
 N          3.3313037892       -0.5361161395        0.3750571751
 C          4.1218869799       -1.4851062205        1.0282242920
 C          3.7713037529       -2.5441167491        1.8449628567
 C          4.7968238812       -3.3059737842        2.3849636717
 C          6.1305814861       -3.0167832135        2.1275578223
 C          6.4944569034       -1.9422618546        1.3306841480
 C          5.4795221183       -1.1774638756        0.7874471345
 N          5.4858380809       -0.0530497272       -0.0112094081
 C          6.2740301728        0.8216127900       -0.7280480086
 C          7.6394767441        0.9599995000       -0.8904197775
 C          8.0759508992        1.9828131280       -1.7130660566
 C          7.1781084375        2.8376871110       -2.3499934654
 C          5.8116742480        2.7056078353       -2.1940282246
 C          5.3473404237        1.6861257629       -1.3750539667
 N          4.0447972526        1.3384791742       -1.0641840929
 C          4.1818581429        0.3302016820       -0.2569010792
 H         -0.5421405455        1.8677936254        0.5742259293
 H         -6.7721817291        1.7052487012        0.0454887106
 H         -7.8778005204        3.8797133825        0.4708348219
 H         -6.5201930188        5.8477936813        1.0802435297
 H         -4.0679766525        5.6474652287        1.2637646414
 H         -2.9748573573        3.4694613037        0.8389144670
 H         -6.9643441041       -1.1496747482       -0.5194630246
 H         -8.3376645458       -3.1255059029       -1.1061488423
 H         -7.2410633021       -5.2809226819       -1.5926903407
 H         -4.7835226609       -5.4666427740       -1.4927892738
 H         -3.4214599632       -3.4838845152       -0.9058802252
 H         -0.8287934261       -2.3117938592       -0.2085279879
 H          1.6331442543       -2.5200408594       -0.0771870386
 H          2.7392448180       -2.7651357228        2.0649914836
 H          4.5485292540       -4.1398624192        3.0225904350
 H          6.9009627399       -3.6334974707        2.5630885587
 H          7.5293077199       -1.7064717926        1.1438571808
 H          8.3364075367        0.3005260465       -0.3969805941
 H          9.1356827513        2.1226647034       -1.8638625501
 H          7.5634216468        3.6242101162       -2.9817192080
 H          5.1160450359        3.3673489069       -2.6849503738
