  58
 
 C         -7.7158872731        1.4408219715        1.7284621910
 C         -6.5900649116        2.1724450911        2.0943257628
 C         -5.3366276792        1.8705841862        1.5907505551
 C         -5.2335409387        0.8172379212        0.6942148115
 C         -6.3654092352        0.0445666458        0.3497508287
 C         -7.6131396402        0.3659884005        0.8650623380
 C         -5.9012934873       -1.0068820677       -0.5178698536
 C         -6.5357345727       -2.0578823917       -1.1652514577
 C         -5.7747898853       -2.9107904251       -1.9432475697
 C         -4.4023214162       -2.7225458424       -2.0817990155
 C         -3.7502169819       -1.6802970266       -1.4467866327
 C         -4.5076744801       -0.8320173055       -0.6558869348
 N         -4.1125876434        0.2857097337        0.0692541526
 C         -2.8309786478        0.8030732900        0.0864394332
 C         -2.6115961401        2.1900259586        0.0334267495
 N         -1.3627384460        2.6618877290        0.0670041623
 C         -0.3581875742        1.8485622123        0.1084165687
 C         -0.5501944054        0.4374164846        0.1093921861
 C          0.5511767590       -0.4420892833        0.1132535384
 C          0.3610980284       -1.8533544135        0.1302361079
 N          1.3668132265       -2.6656569970        0.0955576067
 C          2.6149930952       -2.1927144396        0.0519635353
 C          2.8326699062       -0.8049310239        0.0871731788
 N          4.1128664257       -0.2846381421        0.0590848301
 C          5.2379655065       -0.8043688521        0.6865510080
 C          5.3488595928       -1.8488307331        1.5924936493
 C          6.6050118364       -2.1390252678        2.0962230229
 C          7.7259936870       -1.4046193831        1.7212450459
 C          7.6155077288       -0.3386331840        0.8479192749
 C          6.3649542431       -0.0289365533        0.3322889231
 C          5.8934473678        1.0118961468       -0.5440864470
 C          6.5208080136        2.0603959030       -1.2023888066
 C          5.7536785051        2.9019455975       -1.9866287156
 C          4.3819944795        2.7049468553       -2.1206388440
 C          3.7369327403        1.6650574496       -1.4746911102
 C          4.5005317920        0.8282972886       -0.6774394182
 N          1.8184915938        0.0358496928        0.1154520885
 N         -1.8180627061       -0.0390085464        0.1214024250
 H         -8.6776157614        1.7100000320        2.1384914413
 H         -6.6921078960        2.9910467579        2.7908736652
 H         -4.4698122191        2.4307054903        1.9061295720
 H         -8.4807185824       -0.2184702736        0.6004957088
 H         -7.6001615866       -2.2018224690       -1.0617616454
 H         -6.2487887486       -3.7349656214       -2.4548899224
 H         -3.8331985849       -3.4010697441       -2.6996637137
 H         -2.6870793907       -1.5327966374       -1.5566652739
 H         -3.4125381563        2.9004498098       -0.0764562636
 H          0.6460495604        2.2421701407        0.1538327043
 H         -0.6423637227       -2.2479677370        0.1833411149
 H          3.4163268439       -2.9035508200       -0.0521509130
 H          4.4858792431       -2.4107485513        1.9150670166
 H          6.7130848556       -2.9506283924        2.8000369224
 H          8.6900354002       -1.6644582200        2.1318548884
 H          8.4793053217        0.2480683800        0.5760147551
 H          7.5845947947        2.2112942128       -1.1023193487
 H          6.2221073403        3.7241048962       -2.5065721751
 H          3.8078490789        3.3746892353       -2.7434306046
 H          2.6744144749        1.5107817513       -1.5811206579
