  68
 
 O          5.3962363395        1.9384940264       -1.1976681299
 C          5.8155309176        0.9211324799       -0.6839630343
 C          7.2230048883        0.8278451456       -0.2174705925
 C          7.9101256737        2.0203713991        0.0226993083
 C          9.2132399611        2.0013480513        0.4825544028
 C          9.8562873682        0.7931894231        0.7089141499
 C          9.1907972203       -0.3970383478        0.4601666317
 C          7.8878501578       -0.3718777465        0.0055824732
 S          7.0900088128       -1.9182821168       -0.4125219173
 O          7.3401978308       -2.1823365196       -1.8042747037
 O          7.4700448242       -2.9294273483        0.5356502972
 C          5.3574917271       -1.5309076122       -0.2194871350
 C          4.4660316617       -2.5527119639        0.0400843533
 C          3.1101551225       -2.2873790191        0.1085345131
 C          2.6305745258       -0.9928544403       -0.1015295528
 C          1.1896183651       -0.7100448618       -0.0550184483
 C          0.6102827017        0.1729442810       -0.9647088353
 C         -0.7468887898        0.4232138643       -0.9284686389
 C         -1.5711672347       -0.1879705667        0.0127971428
 Si        -3.4378700690        0.1455303803        0.0161433708
 C         -4.2672788659       -0.8802035858       -1.3433119762
 C         -5.6359775476       -1.1319346096       -1.2938667986
 C         -6.2643709197       -1.8608848020       -2.2868041093
 C         -5.5302665166       -2.3551251140       -3.3522508331
 C         -4.1675896315       -2.1179408050       -3.4151342043
 C         -3.5451666525       -1.3870597798       -2.4190381685
 C         -4.1717457200       -0.3554262241        1.6894466135
 C         -4.4499890295        0.5883748013        2.6729230469
 C         -4.9729328358        0.2105630095        3.8967168008
 C         -5.2271991400       -1.1249877244        4.1591840270
 C         -4.9590110811       -2.0780168503        3.1905448967
 C         -4.4374847213       -1.6935973285        1.9688805403
 C         -3.7137360770        1.9943013054       -0.2890076529
 C         -4.7686281346        2.4509987343       -1.0726303778
 C         -4.9779035400        3.8043525705       -1.2685108113
 C         -4.1313370720        4.7287804944       -0.6802354663
 C         -3.0739974697        4.2918660439        0.1004197004
 C         -2.8698339493        2.9376371071        0.2916790332
 C         -0.9832713437       -1.0579518133        0.9250430342
 C          0.3723371189       -1.3205531095        0.8940660153
 C          3.5438109565        0.0233880240       -0.3646808786
 C          4.9136233870       -0.2289970562       -0.4218659801
 H          7.3953910649        2.9519807372       -0.1596872422
 H          9.7316348126        2.9307608777        0.6640450542
 H         10.8731779186        0.7779436252        1.0702574402
 H          9.6608378755       -1.3553945413        0.6159765885
 H          4.8556904557       -3.5480647478        0.1857557078
 H          2.4144730922       -3.0905022567        0.2989172071
 H          1.2256649555        0.6434907550       -1.7174769896
 H         -1.1800930613        1.1098612230       -1.6419858258
 H         -6.2122666791       -0.7545298085       -0.4603928198
 H         -7.3277244854       -2.0456785628       -2.2308731674
 H         -6.0185019687       -2.9252896515       -4.1292667717
 H         -3.5895330655       -2.5042287139       -4.2424721578
 H         -2.4803551864       -1.2094059166       -2.4723941152
 H         -4.2579290229        1.6328710723        2.4720271317
 H         -5.1841349142        0.9583982525        4.6477324094
 H         -5.6357440480       -1.4223942479        5.1141249563
 H         -5.1587523260       -3.1215022386        3.3888471135
 H         -4.2371575949       -2.4405601210        1.2130386689
 H         -5.4301451321        1.7340020130       -1.5378300574
 H         -5.8023163007        4.1401192028       -1.8812305961
 H         -4.2932596455        5.7862386386       -0.8311868206
 H         -2.4084510667        5.0089341683        0.5596464529
 H         -2.0398412971        2.6015035217        0.8979514113
 H         -1.6000616735       -1.5330856274        1.6742302973
 H          0.8079598490       -1.9853486275        1.6260854783
 H          3.2078382246        1.0390551782       -0.5134224599
