  58
 
 F          5.2226851251        2.4948833412       -2.4964060372
 B          5.0871821632        2.3900424388       -1.1328731722
 F          5.1843063974        3.6211574006       -0.5402440270
 O          6.0943420405        1.4803618377       -0.5910435350
 C          5.8252217802        0.3209055501       -0.0583034392
 C          7.0015826307       -0.4642146585        0.3463562304
 C          6.9397274666       -1.4352396627        1.3456286426
 C          8.0715138060       -2.1485649790        1.6924299428
 C          9.2753749380       -1.9072282336        1.0495697278
 C          9.3480104600       -0.9374753663        0.0625570774
 C          8.2219423067       -0.2164934676       -0.2838555898
 C          4.5435060923       -0.1530195684        0.1026669282
 C          3.4275270077        0.6162224918       -0.2841713869
 C          2.0999532449        0.1867106509       -0.1066631688
 C          1.0629237814        1.0161328078       -0.4920165362
 C         -0.3497030950        0.6848306417       -0.3433328694
 C         -1.3007268037        1.4701533228       -1.0032336938
 C         -2.6453510442        1.1970244872       -0.8909066704
 C         -3.0817353752        0.1272245903       -0.1087641522
 N         -4.4516673312       -0.1545407703        0.0147539630
 C         -5.3328946610        0.7999789816        0.5372225162
 C         -4.9002699623        2.0333861159        1.0087781243
 C         -5.8002800065        2.9524545239        1.5255899680
 C         -7.1455959166        2.6509483085        1.5931313797
 C         -7.5885420464        1.4096567236        1.1633813021
 C         -6.6941957154        0.4880965112        0.6497276675
 O         -7.2043734141       -0.7320249074        0.2858653345
 C         -6.3297480228       -1.6592181170       -0.2189527054
 C         -6.8617339591       -2.8790731036       -0.5956554894
 C         -6.0500866838       -3.8553496004       -1.1524498762
 C         -4.7095062844       -3.5924409843       -1.3498132069
 C         -4.1708381585       -2.3724662410       -0.9711368187
 C         -4.9619647356       -1.3979184980       -0.3750129296
 C         -2.1395609940       -0.6572792597        0.5569154736
 C         -0.7943654623       -0.3819973347        0.4420730423
 N          1.3317918323        2.2214098543       -1.0562450265
 C          2.5687282678        2.5653377472       -1.2084307219
 N          3.6291108009        1.8339018865       -0.8486308991
 H          6.0155868924       -1.6147848674        1.8728491504
 H          8.0167333286       -2.8941391700        2.4718857968
 H         10.1555593367       -2.4698344389        1.3229912625
 H         10.2856628296       -0.7420819299       -0.4357315802
 H          8.2639069733        0.5428802509       -1.0490795401
 H          4.3672139267       -1.1289786802        0.5180870581
 H          1.9300145598       -0.7868655537        0.3211624168
 H         -0.9538082078        2.2897758961       -1.6116160485
 H         -3.3708480133        1.8001203094       -1.4161694170
 H         -3.8500597199        2.2772747014        0.9831706315
 H         -5.4352405568        3.9044896557        1.8784333001
 H         -7.8504688544        3.3646986708        1.9888756586
 H         -8.6282933387        1.1309133385        1.2242869308
 H         -7.9177129662       -3.0408961756       -0.4501337917
 H         -6.4729166567       -4.8047695538       -1.4401155101
 H         -4.0691723339       -4.3317845055       -1.8055603269
 H         -3.1262821716       -2.1742379035       -1.1528180188
 H         -2.4763348338       -1.4737364268        1.1786341913
 H         -0.0913439273       -0.9874189419        0.9925281907
 H          2.7855132641        3.5231018631       -1.6601847231
