83

O     -0.240865   -2.608863   -1.780666
P      0.459695   -2.476163   -0.437943
C     -0.706715   -2.448198    0.939952
C     -0.371168   -1.919857    2.195925
C     -1.301367   -1.918365    3.236743
C     -2.575144   -2.445701    3.035168
C     -2.921144   -2.975904    1.794472
C     -1.992700   -2.977094    0.753354
C      1.513220   -3.924054   -0.141197
C      1.730812   -4.833609   -1.188757
C      2.542480   -5.953453   -1.005313
C      3.147339   -6.179533    0.228484
C      2.940265   -5.287713    1.278528
C      2.127758   -4.166678    1.096511
C      1.481711   -0.976799   -0.396518
C      2.886009   -1.096053   -0.427716
C      3.732508    0.002302   -0.386295
N      5.064146   -0.196367   -0.397332
C      5.833521    0.915835   -0.353922
C      5.277301    2.203363   -0.295282
N      3.939774    2.405904   -0.279948
C      3.171209    1.299754   -0.328704
C      1.790902    1.427795   -0.326402
C      0.921912    0.317753   -0.367939
C     -0.525204    0.576302   -0.389588
C     -1.292794    0.313253   -1.530610
C     -2.670196    0.561902   -1.545587
C     -3.323341    1.092833   -0.422403
N     -4.745720    1.338050   -0.432651
C     -5.639546    0.388269   -1.053657
C     -6.752695    0.818818   -1.797376
C     -7.616802   -0.100866   -2.398102
C     -7.382799   -1.467459   -2.266031
C     -6.286195   -1.915981   -1.534280
C     -5.423082   -0.996022   -0.933344
C     -5.274802    2.529940    0.187087
C     -4.629887    3.770475    0.036749
C     -5.140878    4.924087    0.637391
C     -6.304538    4.856624    1.399791
C     -6.958536    3.637634    1.562081
C     -6.448225    2.484187    0.960515
C     -2.548133    1.377262    0.712520
C     -1.171029    1.129067    0.726052
C      6.120379    3.323376   -0.248893
S      5.740873    5.009155   -0.172039
C      7.393627    5.464799   -0.159194
C      8.241325    4.379424   -0.210684
C      7.496519    3.181445   -0.260670
C      8.068026    1.858425   -0.321238
C      9.451343    1.578139   -0.339067
C      9.660278    0.217281   -0.399559
S      8.194741   -0.671894   -0.431387
C      7.227465    0.760546   -0.365923
H      0.612998   -1.493182    2.370764
H     -1.035547   -1.500812    4.204589
H     -3.301187   -2.440028    3.844026
H     -3.916129   -3.383346    1.635027
H     -2.272408   -3.383820   -0.217385
H      1.261140   -4.666877   -2.157454
H      2.701110   -6.648659   -1.825905
H      3.779928   -7.051807    0.371795
H      3.413241   -5.465888    2.241211
H      1.988347   -3.485609    1.930358
H      3.355000   -2.075589   -0.495342
H      1.374717    2.435143   -0.304983
H     -0.827902   -0.097117   -2.426096
H     -3.228384    0.345500   -2.453714
H     -6.943206    1.881160   -1.930562
H     -8.468106    0.253088   -2.973404
H     -8.053183   -2.182568   -2.735365
H     -6.099320   -2.981308   -1.429241
H     -4.581096   -1.367337   -0.354846
H     -3.730058    3.847961   -0.569080
H     -4.630320    5.874286    0.504823
H     -6.701891    5.753908    1.866909
H     -7.864844    3.580486    2.159052
H     -6.964122    1.539156    1.113677
H     -3.017390    1.773711    1.609804
H     -0.609916    1.355366    1.630268
H      7.660277    6.512096   -0.114303
H      9.319141    4.476885   -0.211173
H     10.261590    2.294987   -0.311417
H     10.605885   -0.307157   -0.427138
