  92
 
 C          6.6872805990        3.0883155590        0.0013098544
 C          5.1495080525        3.0159431080       -0.0002594188
 C          4.5497233278        4.4339340314       -0.0018940337
 C          4.6981712861        2.2967647321       -1.2576806496
 C          5.0305546790        2.8165175898       -2.5010154123
 C          4.6461661504        2.2041765311       -3.6796945994
 C          3.9065201038        1.0368214448       -3.6261914656
 C          3.5622135079        0.4979666465       -2.4044552742
 C          3.9507080138        1.1156123636       -1.2123567729
 N          3.5875262278        0.5513582644       -0.0001836380
 C          2.8609055471       -0.6704268456       -0.0001028197
 C          3.5473870645       -1.8852921576       -0.0001293545
 C          2.8339284494       -3.0593990785        0.0001068482
 C          1.4358471805       -3.0484721413        0.0002955060
 C          0.7313198435       -1.8277875157        0.0002209720
 C          1.4787823861       -0.6462391505        0.0000567546
 C         -0.7252591946       -1.8272677263        0.0003235768
 C         -1.4740898922       -0.6467415903        0.0000768383
 C         -2.8563237392       -0.6739343113        0.0000656438
 N         -3.5843121750        0.5470203325       -0.0001889944
 C         -3.9470234115        1.1115823398        1.2118785958
 C         -3.5573986139        0.4947600314        2.4040480540
 C         -3.9005878405        1.0344978790        3.6256797270
 C         -4.6401659938        2.2019030387        3.6789836373
 C         -5.0260409839        2.8131700761        2.5002259133
 C         -4.6948440687        2.2924793189        1.2569773965
 C         -5.1478762355        3.0101776293       -0.0007039680
 C         -6.6856396202        3.0819466296       -0.0004900377
 C         -4.5482780911        4.4282562336       -0.0012334517
 C         -4.6952251420        2.2917117784       -1.2580839538
 C         -5.0267958336        2.8116441390       -2.5015500862
 C         -4.6412449569        2.1996775638       -3.6800511063
 C         -3.9015983032        1.0323381796       -3.6262574247
 C         -3.5580363462        0.4933487931       -2.4043998080
 C         -3.9473591994        1.1108623743       -1.2124899414
 C         -3.5413970014       -1.8896051104        0.0002910436
 C         -2.8268978819       -3.0631196771        0.0005193605
 C         -1.4287327181       -3.0482160968        0.0005664706
 C         -0.7096448614       -4.3016694964        0.0007820291
 N         -1.3929320353       -5.4291315232        0.0011238247
 C         -0.7078795408       -6.5779481839        0.0013431998
 C         -1.3762864877       -7.8247282931        0.0017433428
 F         -2.7200314347       -7.8395647337        0.0019020678
 C         -0.6858552746       -9.0030306995        0.0019745804
 C          0.7201076708       -8.9910994071        0.0018099004
 C          1.4152392758       -7.8156770094        0.0014189638
 C          0.7209458567       -6.5873429783        0.0011826133
 N          1.4013145368       -5.4331355994        0.0008136804
 C          0.7187440892       -4.3043102817        0.0006225584
 C          3.9481777168        1.1172861273        1.2119683780
 C          3.5575573999        0.5010770551        2.4041162166
 C          3.8993636155        1.0416041302        3.6258172918
 C          4.6386807881        2.2091701315        3.6792359604
 C          5.0253703473        2.8199669243        2.5005094450
 C          4.6955095578        2.2985261823        1.2572106448
 H          7.0524237109        3.6100957094       -0.8789464652
 H          7.0505635017        3.6113069531        0.8816150346
 H          7.1049783934        2.0831776656        0.0024473982
 H          3.4628035055        4.3758373447       -0.0029838102
 H          4.8622948145        4.9886885674        0.8784622044
 H          4.8641260898        4.9874462093       -0.8823802270
 H          5.6075102471        3.7271813919       -2.5584848101
 H          4.9221995944        2.6360258846       -4.6295309051
 H          3.5953223754        0.5426496936       -4.5344741158
 H          2.9850851093       -0.4137221132       -2.3689560799
 H          4.6267645587       -1.8856753132       -0.0003654101
 H          3.3299983038       -4.0169064319        0.0000733119
 H          0.9955372584        0.3176035679        0.0001295305
 H         -0.9929970574        0.3182137068       -0.0001281128
 H         -2.9808617635       -0.4172774076        2.3687149276
 H         -3.5888297168        0.5408077128        4.5340361729
 H         -4.9153393319        2.6344080898        4.6287792890
 H         -5.6033017184        3.7236539829        2.5576000404
 H         -7.0499751746        3.6044030263        0.8797061878
 H         -7.0502473478        3.6038453617       -0.8809045596
 H         -7.1027998381        2.0766010329       -0.0001068608
 H         -4.8619281807        4.9820746600       -0.8818002301
 H         -3.4613284285        4.3701858756       -0.0013923774
 H         -4.8616415522        4.9826083300        0.8790993566
 H         -5.6040972369        3.7220779675       -2.5593058641
 H         -4.9167132890        2.6315972928       -4.6300275896
 H         -3.5900763224        0.5381173841       -4.5344064546
 H         -2.9814392538       -0.4186360766       -2.3686838647
 H         -4.6206997103       -1.8914416054        0.0003088532
 H         -3.3214831047       -4.0214993218        0.0007490177
 H         -1.2264254139       -9.9365072139        0.0022853157
 H          1.2454143204       -9.9338948904        0.0020069703
 H          2.4932178172       -7.7901413428        0.0012918923
 H          2.9808559850       -0.4108832639        2.3686929856
 H          3.5865296810        0.5485319297        4.5341350780
 H          4.9126989322        2.6423669332        4.6290414807
 H          5.6020668463        3.7308001552        2.5579120108
