60
 xtb: 6.7.1 (edcfbbe)
C            2.81930683928807        3.61109361370408       -1.25194395418161
C            1.44876122240954        3.70621191177816       -1.15308345544598
C            0.68567259187295        2.61775455680196       -0.69722415435654
C           -0.74476908768742        2.64966498725148       -0.58550340735242
C           -1.51373551974729        3.81523957682370       -0.68065791400705
N           -2.81361602651894        3.80717813634890       -0.56113030174161
C           -3.46090056932700        2.64659747319970       -0.33277792639598
C           -2.72552068242967        1.48173590941130       -0.15365307322310
N           -3.36177273664513        0.27583020565688        0.07607135091901
C           -3.01570335264466       -0.91896821357499       -0.53677613190803
C           -1.96542533619203       -1.19098700515814       -1.39809906079205
C           -1.84858223543182       -2.48216844726497       -1.87929312534992
C           -2.75526111163265       -3.47533484251768       -1.52017542986755
C           -3.80878753630524       -3.20456187481144       -0.66642149773551
C           -3.94611302409375       -1.91603524113626       -0.17104331453343
C           -4.89245281109524       -1.28942034504805        0.71430895316039
C           -6.00131876740871       -1.75742618471416        1.40339810232362
C           -6.69114486236748       -0.88113621923494        2.22055977866975
C           -6.27282872009666        0.43795420330383        2.36887172849636
C           -5.17085755595529        0.92716801362828        1.69038026097990
C           -4.49469860726552        0.06151435932282        0.84320956079371
N           -1.40518265671266        1.48851368332904       -0.27683467855748
C            1.36377375660069        1.43651890648229       -0.34800902204196
C            2.73998713887968        1.35264896415504       -0.45057926517583
N            3.39839485580954        0.16592443010169       -0.08566573051308
C            3.09967057840890       -1.10104179645927       -0.53838172085733
C            2.14118134682279       -1.50973076759143       -1.45625466356921
C            2.07558738443307       -2.85554774018414       -1.76231139718759
C            2.93856061939005       -3.77941516435844       -1.17758163903799
C            3.90647872113716       -3.37666916257538       -0.27750860069686
C            3.99550397181921       -2.02937153494254        0.04350144327483
C            4.87061027981371       -1.27164248549046        0.89485266977914
C            5.92831332835712       -1.61278451990231        1.72604862200301
C            6.56093936269686       -0.61103875749337        2.43735922162528
C            6.14121456459069        0.71378136446628        2.33807357280950
C            5.09083611443808        1.07817004830835        1.51768757846629
C            4.46616511974355        0.07952744275960        0.78221964496723
C            3.48155828009764        2.44206005201616       -0.90799203651951
H            3.38600399915550        4.44439075767882       -1.63838881998713
H            0.96263741683612        4.61884688355505       -1.45550281139489
H           -1.03401942848849        4.77701941101103       -0.78836339034427
H           -4.53298646521809        2.65127534154940       -0.34626227200992
H           -1.27849906988324       -0.40151669248363       -1.70223723463124
H           -1.06269884079656       -2.69474259915174       -2.60608828229080
H           -2.65148844525146       -4.44931701336409       -1.97934871889557
H           -4.51894232190863       -3.96919268646290       -0.43204793805547
H           -6.30847100932895       -2.79597042465350        1.28634179888040
H           -7.54660456952310       -1.24740310066412        2.76557473511968
H           -6.80113809270093        1.06796113575310        3.05252711704767
H           -4.83206848092877        1.92848270470956        1.85373748839719
H            0.79626953971567        0.60303712398986        0.04021658690613
H            1.45528350990224       -0.81501454223530       -1.88643026515528
H            1.30439714432684       -3.22466032554480       -2.40443524900159
H            2.82112542183974       -4.83776318862165       -1.36911797044108
H            4.57648460845406       -4.09121700203418        0.20561519061980
H            6.25736594981215       -2.62951317902290        1.81954367062014
H            7.41811554446548       -0.83357252312745        3.06155478943495
H            6.68040260450020        1.49379266395079        2.87520659315314
H            4.78237854521253        2.11568985278994        1.42890776672257
H            4.55073333980588        2.35324031597405       -1.02904508642015
