  63
 
 N          6.0034845788        2.8283228615       -0.7704601226
 C          6.2852739771        1.7251633442       -0.5717251576
 C          6.7397831322        0.4317737245       -0.3109843395
 C          8.1254357307        0.2526499920       -0.3401905330
 C          8.7022226572       -0.9368085027        0.0370900586
 C          7.8777378485       -1.9946913081        0.4795994531
 C          6.5241841296       -1.8511487516        0.5175180530
 C          5.8671186411       -0.6598551385        0.0910220076
 C          4.4632093290       -0.5745126318        0.0385334619
 C          3.6160199284       -1.4360300252        0.8189851289
 C          2.2633138012       -1.3254085061        0.8014928016
 C          1.6200054005       -0.3475288615        0.0009860635
 N          0.2483215849       -0.2137102112        0.0036124207
 C         -0.6733124235       -1.2449040456       -0.0134014972
 C         -0.4743996692       -2.6161808776       -0.1104084781
 C         -1.5848377054       -3.4350866163       -0.1348924628
 C         -2.8905683510       -2.9226357432       -0.0886621038
 C         -4.0406020697       -3.8334712240       -0.1104711640
 C         -5.1802968134       -3.5257066806       -0.8528340577
 C         -6.2613664612       -4.3860292712       -0.8730617491
 C         -6.2278949404       -5.5654738528       -0.1473479566
 C         -5.1027918077       -5.8805980723        0.5967597775
 C         -4.0174899771       -5.0255388340        0.6128846528
 C         -3.0845430601       -1.5433025868       -0.0406112748
 C         -1.9850025399       -0.7068334993       -0.0068641727
 C         -1.8376482132        0.7242420196        0.0165509775
 C         -2.7436898638        1.7674591577        0.0507153902
 C         -2.2714840995        3.0781031268        0.0959588443
 C         -3.2111932226        4.2047855195        0.1159564136
 C         -2.9448148547        5.3648664262       -0.6107611759
 C         -3.8324191465        6.4237419383       -0.5970918641
 C         -4.9977977882        6.3473837606        0.1478921258
 C         -5.2714723342        5.2018470140        0.8770650708
 C         -4.3892802356        4.1384587422        0.8591459497
 C         -0.8886120372        3.3134671460        0.1391114678
 C          0.0318271537        2.2856755315        0.1140810075
 C         -0.4444158556        0.9840216308        0.0202205097
 C          2.4303623454        0.4895110551       -0.8075249646
 C          3.7820673207        0.3732672306       -0.7989495621
 H          8.7426836019        1.0839617676       -0.6524133836
 H          9.7734139491       -1.0611494524        0.0104254418
 H          8.3327420945       -2.9269386697        0.7804322483
 H          5.9200163357       -2.6918829212        0.8219282610
 H          4.0692109128       -2.1382295096        1.5003086448
 H          1.6607148296       -1.9314439093        1.4621858912
 H          0.5163299100       -3.0357464036       -0.1890662415
 H         -1.4477510286       -4.5019073682       -0.2257167879
 H         -5.2059914622       -2.6178892602       -1.4378669207
 H         -7.1338876068       -4.1376028055       -1.4596590338
 H         -7.0742285203       -6.2359326976       -0.1619591237
 H         -5.0727182430       -6.7967153167        1.1684949790
 H         -3.1511093789       -5.2687325979        1.2106015783
 H         -4.0822847650       -1.1325307734       -0.0136207149
 H         -3.8043578666        1.5690194842        0.0254572090
 H         -2.0471214087        5.4241205739       -1.2085641075
 H         -3.6157515109        7.3127946700       -1.1711447794
 H         -5.6890831078        7.1768393306        0.1607429419
 H         -6.1759428121        5.1389064869        1.4645473691
 H         -4.5997593907        3.2567688494        1.4469237604
 H         -0.5358811179        4.3296631491        0.2264310163
 H          1.0875527178        2.4947924309        0.1867802602
 H          1.9488432338        1.1708716756       -1.4930212128
 H          4.3614137176        0.9672181475       -1.4861262138
