  141
 
 C          4.2872752416        6.6346438710        0.3788848039
 C          5.1344795836        5.4473932225       -0.0864034337
 C          6.2774282423        5.2509902989        0.9205522343
 C          5.7104765370        5.7882048588       -1.4684317697
 C          4.3395607754        4.1551202274       -0.1874705644
 C          2.9858279935        4.0781029690        0.1485369647
 C          2.2634414239        2.9026211719        0.0598312068
 C          2.9108938050        1.7660685240       -0.3948562842
 C          4.2843004067        1.8141465931       -0.7285411636
 C          4.9853466633        2.9995067733       -0.6219042247
 C          4.6602890682        0.4765283688       -1.1056573182
 C          5.8565568401       -0.1082440038       -1.4846986338
 C          5.8948783306       -1.4646855694       -1.7853555304
 C          7.1850220210       -2.1893868556       -2.1321565277
 C          7.4271065083       -3.2750240716       -1.0733621289
 C          7.0607421949       -2.8310659661       -3.5211439898
 C          8.4000956058       -1.2578978817       -2.1467183725
 C          4.6985911324       -2.1934371793       -1.7610859742
 C          3.4940748756       -1.6344849905       -1.3895478305
 C          3.4888485530       -0.3029936439       -1.0021989415
 N          2.4480859362        0.4741282006       -0.5406346348
 C          1.2391532362       -0.0335747246       -0.0581395269
 C          1.2189980059       -1.1015998155        0.8222045242
 N          2.4196812573       -1.6057893704        1.3481338106
 C          3.4482308630       -0.8368393212        1.8540146611
 C          3.4365913300        0.4941537846        2.2450598139
 C          4.6187427954        1.0410383966        2.7048722673
 C          5.7791570476        0.2780881355        2.8034024876
 C          5.7777413188       -1.0660033537        2.4812395144
 C          4.6034063624       -1.6355821779        2.0125666895
 C          4.2347299445       -2.9636329148        1.6077949177
 C          4.9231500230       -4.1653085097        1.5345557702
 C          4.2593717666       -5.2821236337        1.0635086889
 C          2.9276322233       -5.2085860595        0.6629613120
 C          2.2221089914       -4.0224409254        0.7269845461
 C          2.8787608509       -2.8999666624        1.2096095967
 C          0.0001067141       -1.6762380729        1.2396669320
 C         -1.2200025821       -1.1229910627        0.7935316140
 N         -2.4227837684       -1.6694422901        1.2716183292
 C         -2.8502751120       -2.9627050584        1.0501780442
 C         -2.1556944535       -4.0411944864        0.5227881610
 C         -2.8324265535       -5.2362675435        0.3727067298
 C         -4.1723855179       -5.3596613659        0.7317164205
 C         -4.8735466398       -4.2855756345        1.2461933058
 C         -4.2143952049       -3.0758719240        1.4065261186
 C         -4.6221530759       -1.7791858356        1.8714063801
 C         -5.8205294720       -1.2590396309        2.3363378999
 C         -5.8598987348        0.0662175531        2.7269980539
 C         -4.7146261730        0.8574071956        2.6990817080
 C         -3.5088170953        0.3598820720        2.2446857660
 C         -3.4808860284       -0.9492289692        1.7865735744
 C         -1.2375634744       -0.0414370566       -0.0674701845
 N         -2.4450840576        0.4864616162       -0.5347856648
 C         -2.9030642802        1.7685872901       -0.3104270197
 C         -2.2475156940        2.8715702071        0.2098952169
 C         -2.9681912961        4.0374812329        0.3906642312
 C         -4.3270262461        4.1354660361        0.0818663159
 C         -5.1243334811        5.4114466233        0.3025117136
 C         -5.7334403664        5.8601065857       -1.0335225527
 C         -6.2428812865        5.1267599633        1.3159801038
 C         -4.2720889500        6.5621463650        0.8443585290
 C         -4.9774350186        3.0149225098       -0.4306653196
 C         -4.2784640535        1.8400468825       -0.6293840237
 C         -4.6593170091        0.5287456207       -1.0863859530
 C         -5.8584539009       -0.0281739212       -1.4964279657
 C         -5.9026484449       -1.3645406218       -1.8757914715
 C         -7.1953577692       -2.0598478096       -2.2700935709
 C         -7.0715039065       -2.6050490178       -3.6997965243
 C         -8.4071580734       -1.1252102529       -2.2216455072
 C         -7.4428231997       -3.2144467143       -1.2884294428
 C         -4.7102744240       -2.0999350766       -1.8915456005
 C         -3.5027543441       -1.5690280848       -1.4899227373
 C         -3.4904623995       -0.2601291384       -1.0321406499
 C          0.0001699432        0.5384760587       -0.5358091788
 C         -0.0058701841        1.4594650216       -1.5594197930
 N         -0.0167948558        2.2808595647       -2.3824039462
 H          4.9077347246        7.5278402547        0.4179330731
 H          3.8840657927        6.4642592026        1.3745164507
 H          3.4689118261        6.8243047369       -0.3114669845
 H          5.8760225761        4.9974865051        1.8996679913
 H          6.8573859733        6.1669451823        1.0120536279
 H          6.9465703837        4.4531324694        0.6108584833
 H          4.9059689119        5.8944616769       -2.1928478841
 H          6.3851881607        5.0133609216       -1.8210388407
 H          6.2620992331        6.7249596449       -1.4235615223
 H          2.4663131992        4.9560646029        0.4938051595
 H          1.2206300873        2.8837414935        0.3335369142
 H          6.0339376991        3.0113772437       -0.8755116768
 H          6.7411425595        0.5041398744       -1.5331891623
 H          7.5128974527       -2.8194244470       -0.0891447395
 H          6.6091862649       -3.9896515848       -1.0442322634
 H          8.3478778726       -3.8127989429       -1.2899166472
 H          6.2673448151       -3.5722452460       -3.5485030337
 H          7.9933315764       -3.3227606510       -3.7899395077
 H          6.8434074969       -2.0704310082       -4.2680538901
 H          8.5521818896       -0.7980327732       -1.1729846802
 H          9.2926517697       -1.8308246360       -2.3902611337
 H          8.2866129494       -0.4788483115       -2.8970600025
 H          4.7048219574       -3.2369148236       -2.0347868509
 H          2.5859827525       -2.2177084008       -1.4051794585
 H          2.5334002833        1.0832467958        2.1990694823
 H          4.6403479387        2.0811470971        2.9936022950
 H          6.6870663392        0.7430862643        3.1575660081
 H          6.6694508573       -1.6641324839        2.5944513776
 H          5.9574529867       -4.2229273231        1.8377711770
 H          4.7783347946       -6.2270614582        0.9996612326
 H          2.4367672681       -6.0965371758        0.2926321303
 H          1.1941592798       -3.9705283024        0.4032433412
 H         -0.0035854078       -2.4351312230        2.0023964875
 H         -1.1217017696       -3.9465517976        0.2286467660
 H         -2.3128740366       -6.0912228367       -0.0343437303
 H         -4.6683799705       -6.3098646071        0.5996868409
 H         -5.9143683267       -4.3818436147        1.5154069899
 H         -6.7015307924       -1.8805233844        2.3943529110
 H         -6.7868397828        0.4931679323        3.0798194957
 H         -4.7672391515        1.8806346424        3.0394278181
 H         -2.6180740864        0.9693200369        2.2518353743
 H         -1.2015268859        2.8309982984        0.4698308161
 H         -2.4444636668        4.8893840146        0.7906685084
 H         -6.2876084711        6.7868456872       -0.8998088827
 H         -4.9464239511        6.0297695298       -1.7650348482
 H         -6.4131741043        5.1127138970       -1.4325776155
 H         -6.8262502988        6.0278599340        1.4931846156
 H         -5.8174903934        4.7997578230        2.2626895013
 H         -6.9137859412        4.3504403720        0.9589324619
 H         -4.8952345770        7.4456127076        0.9687121726
 H         -3.4694148572        6.8118710774        0.1546740784
 H         -3.8470438269        6.3142934446        1.8143251179
 H         -6.0291322865        3.0444824714       -0.6694980967
 H         -6.7404760097        0.5896774605       -1.5080288789
 H         -6.8537724133       -1.7950478642       -4.3927528357
 H         -6.2779895066       -3.3425442005       -3.7776908228
 H         -8.0042324003       -3.0768156949       -4.0018058479
 H         -8.2920721562       -0.2989827033       -2.9194176049
 H         -8.5561422963       -0.7297260460       -1.2195434532
 H         -9.3020513080       -1.6777966382       -2.5010075387
 H         -8.3666680101       -3.7309214660       -1.5408414452
 H         -7.5257972749       -2.8270811110       -0.2751940908
 H         -6.6291639491       -3.9341319096       -1.3094083406
 H         -4.7220365882       -3.1264452282       -2.2231981918
 H         -2.5978869331       -2.1556925445       -1.5355894267
