  42
 
 N          3.3947708054        2.9706720476        0.4361317030
 C          3.1627122086        1.8505090842        0.2955095385
 C          2.8043637917        0.4980638414        0.1446211524
 C          3.7818902621       -0.5148985796        0.1351280602
 C          5.1874034847       -0.4125957598        0.0431079485
 C          5.8895073705        0.7689124681       -0.2886681613
 C          7.2633981007        0.7756305492       -0.3618076748
 C          7.9941667623       -0.3814533611       -0.1137735212
 C          7.3262729437       -1.5622173140        0.1974814815
 C          5.9547055133       -1.5834040098        0.2682677594
 C          1.4081741130        0.2329741984        0.0762287173
 C          0.4585770706        1.2664466408        0.3134210691
 C         -0.8817671562        1.0447314676        0.2501741118
 C         -1.4095834287       -0.2377204584       -0.0678998370
 C         -2.8058407938       -0.5025977841       -0.1368190736
 C         -3.1642563647       -1.8554765786       -0.2837796044
 N         -3.3960959618       -2.9761510736       -0.4205538581
 C         -3.7828159150        0.5107770592       -0.1312788331
 C         -5.1885716346        0.4094570472       -0.0413324819
 C         -5.9548570587        1.5801117217       -0.2705775944
 C         -7.3265648140        1.5597715125       -0.2021728508
 C         -7.9956049781        0.3800506716        0.1105341890
 C         -7.2658676026       -0.7768131447        0.3625587061
 C         -5.8918415062       -0.7709210934        0.2918844491
 C         -0.4600412432       -1.2712887578       -0.3046750158
 C          0.8803080059       -1.0494980561       -0.2417803060
 H          3.4088970049       -1.5227487692        0.2504997460
 H          5.3414429556        1.6712073398       -0.5042833738
 H          7.7775459197        1.6903455650       -0.6185302854
 H          9.0719461019       -0.3654232602       -0.1703477038
 H          7.8896034914       -2.4651618638        0.3826504233
 H          5.4416414930       -2.5024664979        0.5130080809
 H          0.8212065889        2.2516232085        0.5687725930
 H         -1.5507372603        1.8604656168        0.4732421051
 H         -3.4090552844        1.5181182630       -0.2487023069
 H         -5.4408971266        2.4983688682       -0.5164629737
 H         -7.8891194445        2.4625609058       -0.3904435587
 H         -9.0734965413        0.3646572636        0.1651291875
 H         -7.7809274180       -1.6906914301        0.6204194213
 H         -5.3446040998       -1.6729741164        0.5105862556
 H         -0.8226937417       -2.2565251562       -0.5597785218
 H          1.5491786545       -1.8653256912       -0.4647736117
