  112
 
 C         -7.3841580795       -4.5015942018       -1.9065700503
 C         -7.1574560897       -3.4439056968       -2.7723362930
 C         -6.8490731172       -2.1895977023       -2.2836076248
 C         -6.7500090713       -1.9688841810       -0.9076710595
 N         -6.4328368912       -0.7032138683       -0.4173076707
 C         -5.6780821026        0.1866309887       -1.1980712055
 C         -4.5260698516       -0.2444956755       -1.8554079827
 C         -3.7953222752        0.6400074163       -2.6230351227
 C         -4.2019072079        1.9591498943       -2.7514734092
 C         -5.3480934615        2.3905876771       -2.1050666858
 C         -6.0859972869        1.5121121641       -1.3358456003
 C         -6.9211550947       -0.2672101831        0.8237048558
 C         -8.2308293976       -0.5574868962        1.2003593840
 C         -8.7279455676       -0.1349408274        2.4185169341
 C         -7.9236793426        0.5975651430        3.2772860345
 C         -6.6278670299        0.9062599152        2.9055822511
 C         -6.1020661287        0.4841420848        1.6872645592
 C         -4.7127016729        0.8136232877        1.3279017963
 C         -4.3316157111        2.1634703580        1.1181241213
 C         -5.2381040911        3.2231653038        1.2955052877
 C         -4.8456650344        4.5394539409        1.1552215877
 C         -3.5250818771        4.8367191707        0.8516252179
 C         -2.6180062805        3.8132031149        0.6415527902
 C         -2.9995413041        2.4661658762        0.7112006680
 C         -2.0607093836        1.4129239654        0.4703404074
 C         -0.7615826260        1.7319579228       -0.0670188055
 C         -0.6936156401        2.4936128229       -1.2496802580
 C          0.4893549328        2.7159272708       -1.8971410463
 C          1.7106231274        2.2484707568       -1.3630916077
 C          2.9409541514        2.4468489400       -2.0194652746
 C          4.1153587885        2.0151978593       -1.4715953025
 C          4.1450593438        1.3820850526       -0.2055829034
 C          5.3472504442        0.9364901859        0.3897014939
 C          6.6549343815        1.1278532136       -0.2599765784
 C          7.1370175307        2.4059236559       -0.5264138858
 C          8.3969441282        2.5971715077       -1.0633960515
 C          9.1990068773        1.5021608452       -1.3469530102
 C          8.7352609428        0.2242729972       -1.1015792137
 C          7.4671989980        0.0223542226       -0.5606886341
 N          6.9970843462       -1.2849675353       -0.3439114610
 C          7.8285107937       -2.2292610210        0.2558861173
 C          8.7703857457       -1.8358113270        1.2091174411
 C          9.5991038927       -2.7693655889        1.8000042401
 C          9.5030230724       -4.1094286007        1.4605109608
 C          8.5703830597       -4.5068796982        0.5154027773
 C          7.7426343512       -3.5800370986       -0.0874299828
 C          5.7024953226       -1.6176619588       -0.7616044222
 C          4.8939633724       -2.4557945905        0.0057237190
 C          3.6091969635       -2.7486620224       -0.4063078892
 C          3.1095189742       -2.2151748667       -1.5835446118
 C          3.9123186855       -1.3918440937       -2.3549746357
 C          5.2002365574       -1.0965658826       -1.9531509750
 C          5.3094557358        0.3031399938        1.6297341438
 C          4.1244542312        0.1049521484        2.2986367494
 C          2.9063477087        0.5168210509        1.7329085622
 C          1.6709948801        0.3350158995        2.3952173642
 C          0.4952675334        0.7174057661        1.8182093408
 C          0.4619636435        1.3010213910        0.5314691027
 C          1.6930353405        1.5629621794       -0.1219145536
 C          2.9159533650        1.1524846268        0.4668394597
 C         -2.4502432084        0.0563707531        0.7082490408
 C         -1.6190559354       -1.0250281304        0.3864136063
 C         -1.9963044996       -2.3315700492        0.6372234011
 C         -3.2244301825       -2.5988372359        1.2265912351
 C         -4.0943317845       -1.5604577875        1.4904092686
 C         -3.7612176505       -0.2287604104        1.1892280806
 C         -6.9836221317       -3.0396978590       -0.0421264442
 C         -7.2983944592       -4.2885814043       -0.5401709333
 H         -7.6282886037       -5.4800078958       -2.2922405059
 H         -7.2312250212       -3.5933797179       -3.8399670165
 H         -6.6895472186       -1.3684740690       -2.9669940934
 H         -4.2071681158       -1.2707258004       -1.7466631867
 H         -2.8977629010        0.2993021886       -3.1182051230
 H         -3.6312174425        2.6464333093       -3.3583249568
 H         -5.6735684404        3.4156837771       -2.2044790480
 H         -6.9839110843        1.8448685716       -0.8358154113
 H         -8.8590138660       -1.1154954515        0.5208689036
 H         -9.7455827836       -0.3706192990        2.6925178136
 H         -8.3041235064        0.9272864251        4.2325154595
 H         -5.9905815477        1.4644863581        3.5766367191
 H         -6.2614516601        3.0003382347        1.5565649340
 H         -5.5635740812        5.3340130159        1.2986829973
 H         -3.2007318024        5.8644973750        0.7782689462
 H         -1.5894071666        4.0600513526        0.4261363738
 H         -1.6224426566        2.8267407111       -1.6898497845
 H          0.5025930539        3.2398880086       -2.8424839863
 H          2.9403994309        2.9499405457       -2.9766501567
 H          5.0432848797        2.1617356513       -2.0034294693
 H          6.5186066664        3.2566124055       -0.2775238077
 H          8.7560145575        3.5975834312       -1.2539043708
 H         10.1835169937        1.6434642399       -1.7677067928
 H          9.3501588848       -0.6341831443       -1.3311632831
 H          8.8460042421       -0.7934600253        1.4835977738
 H         10.3206282194       -2.4480285934        2.5373415477
 H         10.1500114412       -4.8371331839        1.9268389108
 H          8.4929265329       -5.5479953848        0.2370064368
 H          7.0275781234       -3.8938917749       -0.8337493679
 H          5.2752805266       -2.8608531582        0.9314946839
 H          2.9882401145       -3.3886681472        0.2037281024
 H          2.1017932569       -2.4410547113       -1.8986296397
 H          3.5343676685       -0.9782889157       -3.2785282983
 H          5.8266877517       -0.4570909049       -2.5579273781
 H          6.2376898222       -0.0233095272        2.0780606559
 H          4.1191951090       -0.3714504865        3.2684746277
 H          1.6734161617       -0.1152163457        3.3779697308
 H         -0.4356755230        0.5763017380        2.3474765461
 H         -0.6575361381       -0.8343207083       -0.0649895460
 H         -1.3265500390       -3.1405043047        0.3841903410
 H         -3.5071837410       -3.6144388795        1.4622840978
 H         -5.0519795924       -1.7669208762        1.9430360051
 H         -6.9169907532       -2.8905310850        1.0248996181
 H         -7.4725426263       -5.1046118441        0.1464333058
