  121
 
 C         12.2908343834       -1.5910155085        0.1542706348
 C         11.8504654426       -0.1205735134        0.1868809451
 C         12.3028576318        0.5302644347        1.5017656905
 C         12.5387942736        0.6104843818       -0.9688214095
 C         10.3340990623       -0.0586579042        0.0998377635
 C          9.5664536762       -0.6712634745        1.0886721443
 C          8.1865582867       -0.6424806683        1.0542586355
 C          7.5327253222        0.0054760729        0.0152315580
 N          6.1100602871        0.0374003934       -0.0261556809
 C          5.4483954239        1.1492092040        0.4661103437
 C          6.1714639691        2.2253504340        0.9902669888
 C          5.5221040988        3.3400530411        1.4781254956
 C          4.1388475475        3.4084580481        1.4578753965
 C          3.4179804114        2.3433631825        0.9514433882
 C          4.0521502088        1.2143855930        0.4571625746
 C          3.1952777063        0.0765766708       -0.0601238400
 C          4.0335525833       -1.0673013646       -0.5946931103
 C          3.3820481595       -2.1658064108       -1.1331577634
 C          4.0865783119       -3.2415663990       -1.6400722166
 C          5.4711817733       -3.2163283042       -1.6132303239
 C          6.1376162054       -2.1323111788       -1.0812944819
 C          5.4306492848       -1.0446163137       -0.5589757433
 C          2.3341884975        0.5953100768       -1.1906237837
 C          2.9628288855        1.1074240587       -2.3147305749
 C          2.2362793407        1.5735774542       -3.3942035743
 C          0.8515795712        1.5138906131       -3.3551444346
 C          0.2075016072        1.0090325906       -2.2466443608
 C          0.9357588858        0.5535308905       -1.1403411111
 N          0.2779852136        0.0607043176       -0.0292159876
 C         -1.1441564082        0.0395421928       -0.0182972560
 C         -1.8611083045        1.2251178301        0.1751391532
 C         -3.2481584528        1.1893604065        0.1788483908
 C         -3.9693623794       -0.0076600086        0.0110285609
 C         -3.2123287165       -1.1798426751       -0.1731959862
 C         -1.8251897166       -1.1692314076       -0.1979934801
 O         -3.8176692373       -2.3853247904       -0.3480235899
 C         -5.1713836612       -2.5281669288       -0.2579774676
 C         -5.6193205598       -3.8397727888       -0.3799249783
 C         -6.9648036235       -4.1339919850       -0.2635056078
 C         -7.8922915625       -3.1198267478       -0.0010148163
 C         -9.3614592648       -3.4799065737        0.1440018789
 C         -9.5187544476       -4.4620730512        1.3143228332
 C         -9.8460372705       -4.1399208471       -1.1551841918
 C        -10.2513211393       -2.2644857675        0.4196501078
 C         -7.4228516823       -1.8195037420        0.1104423086
 C         -6.0758961363       -1.4570779559       -0.0426650139
 B         -5.4864712256       -0.0334298844        0.0293906144
 C         -6.1220394340        1.3692274263        0.1179152047
 C         -7.4841300633        1.6853477357        0.0001852017
 C         -7.9947507627        2.9688306929        0.1249577054
 C         -9.4787962312        3.2781656423        0.0194627494
 C        -10.3332524176        2.0330594969       -0.2349392412
 C         -9.9511261546        3.9196131572        1.3324020421
 C         -9.7010363159        4.2555924432       -1.1442371976
 C         -7.0959582345        4.0141827704        0.3637751482
 C         -5.7385946244        3.7661536072        0.4450248083
 C         -5.2494096729        2.4705722569        0.3109551802
 O         -3.8897234662        2.3739493258        0.3670058765
 C          0.9644546930       -0.4161675925        1.0714489978
 C          0.2640256349       -0.8726732051        2.1952448593
 C          0.9359112437       -1.3617220768        3.2941862854
 C          2.3217146890       -1.4043783130        3.3059420169
 C          3.0208185203       -0.9372321051        2.2089551089
 C          2.3639450445       -0.4404226972        1.0941441041
 C          8.2789387870        0.6188197988       -0.9788863111
 C          9.6617976372        0.5856650705       -0.9321729111
 H         11.8817266858       -2.1474937073        0.9928735625
 H         11.9546190308       -2.0642921879       -0.7660204886
 H         13.3756103755       -1.6568592799        0.1992379982
 H         11.9000286713        0.0073742959        2.3645829763
 H         13.3882014877        0.5144915913        1.5716119973
 H         11.9698027342        1.5652715393        1.5436525787
 H         13.6178270739        0.5353819095       -0.8518175097
 H         12.2758509674        1.6657541096       -0.9774705390
 H         12.2748617630        0.1676320244       -1.9264003050
 H         10.0475121313       -1.1832057199        1.9078492337
 H          7.6084690197       -1.1234380177        1.8296776574
 H          7.2495263452        2.1802080189        1.0155061459
 H          6.1014093434        4.1590921267        1.8774632319
 H          3.6276287630        4.2796115182        1.8368454412
 H          2.3382444316        2.3805273363        0.9378786700
 H          2.3018116170       -2.1711785870       -1.1531836634
 H          3.5618295284       -4.0885537202       -2.0537509909
 H          6.0381418913       -4.0451438780       -2.0100981360
 H          7.2168203034       -2.1204081977       -1.0697992377
 H          4.0428614135        1.1353698859       -2.3376020537
 H          2.7429884095        1.9718586246       -4.2595568306
 H          0.2692353151        1.8612435126       -4.1951991885
 H         -0.8695752806        0.9576674413       -2.2281777229
 H         -1.3437893358        2.1602135553        0.3243064482
 H         -1.2800149381       -2.0867716194       -0.3566927080
 H         -4.8942329129       -4.6199683401       -0.5566430280
 H         -7.2810757090       -5.1602616753       -0.3649382074
 H         -8.9567934462       -5.3758375748        1.1427902340
 H        -10.5667161807       -4.7250404768        1.4447371264
 H         -9.1584446126       -4.0082457174        2.2352610751
 H        -10.9010789474       -4.3946246658       -1.0755183893
 H         -9.2916202217       -5.0493043642       -1.3690344438
 H         -9.7170363881       -3.4573692449       -1.9926593502
 H         -9.9680311630       -1.7747012276        1.3484183069
 H        -10.1960629485       -1.5462922147       -0.3950339627
 H        -11.2867339031       -2.5872440020        0.5124935447
 H         -8.1148702026       -1.0278327678        0.3330702646
 H         -8.1541724068        0.8704082706       -0.2049914747
 H        -10.0575493729        1.5539926262       -1.1715443475
 H        -11.3812201968        2.3200678987       -0.3003210171
 H        -10.2321854419        1.3165920529        0.5768573032
 H         -9.7763198944        3.2410204449        2.1647658381
 H         -9.4229247907        4.8473872894        1.5332299976
 H        -11.0160991869        4.1377420765        1.2813757065
 H         -9.1666132194        5.1880620500       -0.9858982371
 H        -10.7605581853        4.4823205699       -1.2461598891
 H         -9.3499857737        3.8154872894       -2.0753471829
 H         -7.4443841182        5.0290288321        0.4743347516
 H         -5.0363516582        4.5707411120        0.6036876488
 H         -0.8137389191       -0.8344485761        2.1979935785
 H          0.3746377157       -1.7099983131        4.1480767715
 H          2.8504084963       -1.7905789574        4.1636067378
 H          4.1012356361       -0.9528508150        2.2111947508
 H          7.7730760416        1.1244865900       -1.7884061236
 H         10.2071277770        1.0742524291       -1.7224689878
