  90
 
 C         -6.4820413219       -2.5642235033        2.5882731547
 C         -6.6153458010       -3.3404524911        1.4482224092
 C         -5.5005412337       -3.7322982416        0.7326409966
 C         -4.2235233148       -3.3607408731        1.1561925573
 N         -3.0920940555       -3.7536155639        0.4351774630
 C         -3.0482765967       -5.0016101392       -0.1939274910
 C         -2.4165521327       -5.1498240527       -1.4295993855
 C         -2.3643540824       -6.3866596223       -2.0427182341
 C         -2.9455081683       -7.4930304800       -1.4442670872
 C         -3.5766064209       -7.3519218361       -0.2185612786
 C         -3.6255398083       -6.1212437044        0.4069504908
 C         -1.9932884671       -2.8840233221        0.3289118404
 C         -0.6915365203       -3.4006121829        0.4140381837
 C          0.4194974998       -2.5913179608        0.3033678738
 C          0.2232015070       -1.2302217446        0.1120138285
 C         -1.0828325831       -0.6906565890        0.0663364844
 C         -2.1908263325       -1.5194127671        0.1576107303
 C         -0.9315353653        0.7309871997       -0.0739117908
 C         -1.8405455329        1.7733733753       -0.1740315860
 C         -1.3592258417        3.0673962975       -0.3288392073
 N         -2.2496137755        4.1496799821       -0.4369382845
 C         -1.9588950414        5.3480569027        0.2221068000
 C         -2.2716446145        6.5763528362       -0.3620306926
 C         -1.9788768177        7.7557351860        0.2950135650
 C         -1.3634749301        7.7351396590        1.5365496775
 C         -1.0437874148        6.5189053968        2.1184399085
 C         -1.3401499801        5.3340523907        1.4729719197
 C         -3.4210257424        4.0157341138       -1.1870067983
 C         -3.4337675273        3.2441628565       -2.3500208632
 C         -4.5960089870        3.1073307632       -3.0840131192
 C         -5.7611328237        3.7401921186       -2.6812777053
 C         -5.7543327496        4.5104341490       -1.5293925335
 C         -4.5996983113        4.6448812835       -0.7830341802
 C          0.0226603595        3.3012785104       -0.3922067763
 C          0.9383715990        2.2765675583       -0.2783980541
 C          0.4590266917        0.9856116765       -0.1010443902
 N          1.1468474474       -0.2077442420        0.0093826703
 C          2.5388562269       -0.3560690157        0.0047867234
 C          3.1441530605       -1.2906977055       -0.8324857873
 C          4.5161572691       -1.4390428629       -0.8309033188
 C          5.3205943860       -0.6489433497       -0.0102172894
 C          6.7820692393       -0.7972721877       -0.0198357994
 C          7.3596155115       -2.0878165952       -0.1013831413
 C          8.7124916355       -2.2658992863       -0.1090394622
 C          9.5701289465       -1.1487920450       -0.0392547037
 N         10.9089022703       -1.3189276064       -0.0478393656
 C         11.6475799712       -0.2425412102        0.0183940294
 C         11.0861270929        1.0489778156        0.0954885198
 N          9.7953115215        1.2479569629        0.1080691387
 C          9.0014921039        0.1547437834        0.0419392609
 C          7.6039319567        0.3048973784        0.0518282563
 C          4.7066779030        0.2888384048        0.8196849737
 C          3.3342664286        0.4303314903        0.8356198083
 C         -4.0959605475       -2.5833108981        2.3083274915
 C         -5.2173747106       -2.1873888484        3.0110262780
 H         -7.3559241959       -2.2561521575        3.1426165949
 H         -7.5969686994       -3.6356662334        1.1062245263
 H         -5.6114078118       -4.3266846118       -0.1627454224
 H         -1.9714022260       -4.2872810383       -1.9040299196
 H         -1.8743089062       -6.4853369111       -3.0007098070
 H         -2.9065852248       -8.4572482465       -1.9286140091
 H         -4.0272526746       -8.2096364528        0.2598629747
 H         -4.1089528416       -6.0177898305        1.3676809479
 H         -0.5648518817       -4.4609766232        0.5752193579
 H          1.4104493866       -3.0098889099        0.3873703315
 H         -3.1895120971       -1.1128124189        0.1066068330
 H         -2.9028527821        1.5844094976       -0.1398941993
 H         -2.7422176049        6.5975003823       -1.3343974787
 H         -2.2254909419        8.6990572000       -0.1707838730
 H         -1.1341578662        8.6593835554        2.0455221191
 H         -0.5676610870        6.4917055789        3.0881015734
 H         -1.0981422075        4.3873263513        1.9337352119
 H         -2.5257934449        2.7561697122       -2.6735726186
 H         -4.5894459425        2.5077205061       -3.9829871485
 H         -6.6666138280        3.6339538953       -3.2598056931
 H         -6.6589312806        5.0028714760       -1.2023513707
 H         -4.6028452936        5.2367239933        0.1209213900
 H          0.3702052544        4.3135742035       -0.5369677161
 H          1.9958831135        2.4792510467       -0.3475190857
 H          2.5335819865       -1.8861965041       -1.4944395279
 H          4.9722654305       -2.1521259105       -1.5011332752
 H          6.7060232104       -2.9465364133       -0.1366354105
 H          9.1572865424       -3.2476283532       -0.1639667546
 H         12.7198973790       -0.3881744508        0.0111698053
 H         11.7135884087        1.9293551037        0.1485173032
 H          7.2040248834        1.3062135255        0.0954898628
 H          5.3114020093        0.8911113883        1.4808725792
 H          2.8683980415        1.1388718318        1.5037922101
 H         -3.1120502193       -2.2940533062        2.6481445858
 H         -5.1016786637       -1.5863180393        3.9015153946
