  164
 
 C         -5.6516204504       -5.3176183142        2.7123094495
 C         -6.3961332652       -4.8972101308        1.4805374241
 C         -7.0585957861       -5.8421279388        0.7039921046
 C         -7.7665861951       -5.4471616616       -0.4172881758
 C         -7.8161094989       -4.1179375360       -0.7878260678
 C         -7.1577496362       -3.1562526917       -0.0207448203
 N         -7.1746368141       -1.8130500232       -0.3919708317
 C         -8.2711559027       -1.2634247165       -1.0632513631
 C         -9.5750968140       -1.5987826216       -0.6987471419
 C        -10.6420005164       -1.0311269499       -1.3657563885
 C        -10.4325148803       -0.1298054158       -2.3965669291
 C         -9.1395358521        0.2128834477       -2.7746839400
 C         -8.8914984549        1.1473452930       -3.9212936993
 C         -8.0705250415       -0.3546474915       -2.1012209412
 C         -6.0620399451       -0.9981900864       -0.1408517359
 C         -6.2548776650        0.3288273570        0.2440165919
 C         -5.1616032301        1.1730280640        0.4261676523
 C         -3.8418171050        0.6852804306        0.3093790989
 C         -3.6782093456       -0.6783890402       -0.0181151216
 C         -4.7725706226       -1.4983954417       -0.2838733415
 N         -2.4010789985       -1.2063345131       -0.0946693286
 C         -2.2830714515       -2.6156175138       -0.2591608061
 C         -1.9435993852       -3.1564814664       -1.4940360349
 C         -1.8103640527       -4.5254129070       -1.6326326948
 C         -2.0210995180       -5.3595312294       -0.5468738062
 C         -2.3697413925       -4.8219361315        0.6806125108
 C         -2.4999050537       -3.4532825276        0.8277086297
 C         -1.2489710086       -0.4586977153       -0.0178196343
 C         -0.0247389082       -1.1143007772       -0.1251508814
 C          1.1809796233       -0.4188225355       -0.1693029549
 C          1.1845226461        1.0039757306       -0.1311495079
 C         -0.0560823097        1.6112416919        0.0928518984
 C         -1.2831745715        0.9474708936        0.2015520769
 B         -2.6454627702        1.5892929330        0.5299974548
 C         -2.9920131822        3.0039635819        1.0309239610
 C         -2.0685557231        3.9584593031        1.4854045049
 C         -2.4287853998        5.2393403869        1.8365334561
 C         -3.7585183185        5.6488632075        1.7408205110
 C         -4.1450601794        7.0595817132        2.0660607824
 C         -4.7058408879        4.7184478078        1.3551953908
 C         -4.3544768640        3.4001257133        1.0457870060
 N         -5.3673490694        2.5014994503        0.7452183578
 C         -6.7179525666        2.9316175160        0.8783678223
 C         -7.2677988017        3.1065342758        2.1427361038
 C         -8.5896400205        3.4932144779        2.2624063408
 C         -9.3637333513        3.6927301071        1.1326026036
 C         -8.8267980041        3.5164429146       -0.1371284790
 C         -9.6757028607        3.6927563571       -1.3575201657
 C         -7.4957055381        3.1406964872       -0.2526184602
 B          2.5405045615        1.7239913689       -0.2565692148
 C          2.8717741047        3.2176699497       -0.4367181861
 C          1.9488610184        4.2208007765       -0.7698659483
 C          2.2991995536        5.5454406742       -0.8985219037
 C          3.6226449675        5.9456964609       -0.7182626036
 C          4.0045312591        7.3887487049       -0.8494314309
 C          4.5697506111        4.9782950124       -0.4373422899
 C          4.2219494386        3.6300788809       -0.3026815447
 N          5.2337247847        2.7109632606       -0.0681437811
 C          6.5517749215        3.2000210387        0.1582123361
 C          6.8888243523        3.7135945480        1.4039729595
 C          8.1768255048        4.1649586331        1.6271281288
 C          9.1253421678        4.0963064594        0.6216058764
 C          8.8004281255        3.5831048509       -0.6283592342
 C          9.8313415894        3.4745791112       -1.7086292626
 C          7.5032466125        3.1424313670       -0.8514562454
 C          5.0578449896        1.3412616883       -0.0871622651
 C          6.1603896311        0.4978867276        0.0336933097
 C          6.0022129954       -0.8839428789       -0.0754072743
 N          7.1278396247       -1.7165012121       -0.0434807212
 C          7.0499943367       -2.9774296734        0.5498917565
 C          7.7556648628       -4.0578973449        0.0200641456
 C          7.6468560938       -5.3047087805        0.6034261400
 C          6.8329342541       -5.4999786614        1.7052541976
 C          6.1228988313       -4.4339435300        2.2475926754
 C          5.2625171402       -4.6360203149        3.4588592228
 C          6.2446800066       -3.1818360459        1.6712644151
 C          8.3119726050       -1.2867133330       -0.6498650357
 C          8.2751987162       -0.5562450518       -1.8379077853
 C          9.4510890727       -0.1265405215       -2.4187784941
 C         10.6727727070       -0.4162509520       -1.8350531705
 C         10.7282675498       -1.1466453379       -0.6527423456
 C         12.0472902020       -1.4424262351       -0.0043614846
 C          9.5469366106       -1.5720582086       -0.0687665898
 C          4.7293254584       -1.4252995130       -0.2229949319
 C          3.6145350596       -0.5896872883       -0.2095736169
 C          3.7515844868        0.8151820730       -0.1861927918
 N          2.3480392817       -1.1432734042       -0.2533163950
 C          2.2477785247       -2.5649324361       -0.2788220782
 C          2.3672472350       -3.2903292876        0.8997565607
 C          2.2474261355       -4.6676128907        0.8760387008
 C          2.0042406672       -5.3235225423       -0.3189484125
 C          1.8894141212       -4.6009355047       -1.4945752821
 C          2.0139459620       -3.2234766441       -1.4790919962
 C         -6.4583162279       -3.5639101675        1.1165549770
 H         -5.1105649465       -6.2450377566        2.5352981569
 H         -4.9479343745       -4.5493405854        3.0225921095
 H         -6.3508876345       -5.4907287145        3.5310156208
 H         -7.0186361805       -6.8856189021        0.9799395656
 H         -8.2766308495       -6.1856376667       -1.0188371486
 H         -8.3536864711       -3.8177704213       -1.6749170139
 H         -9.7396501136       -2.2973183029        0.1081347407
 H        -11.6501495105       -1.2890510577       -1.0754246967
 H        -11.2766534393        0.3044105765       -2.9128943926
 H         -9.7671473614        1.7585484135       -4.1264956945
 H         -8.6606011056        0.5753762625       -4.8206370465
 H         -8.0440079720        1.7972650070       -3.7148668782
 H         -7.0600324941       -0.1001877633       -2.3876178209
 H         -7.2651104376        0.6804956026        0.3791579085
 H         -4.6385566499       -2.5217382966       -0.5991280803
 H         -1.7787238790       -2.4961023462       -2.3324901088
 H         -1.5436093069       -4.9429678409       -2.5920108581
 H         -1.9154449710       -6.4280198853       -0.6585579554
 H         -2.5359008567       -5.4699216831        1.5278062787
 H         -2.7649598522       -3.0207588418        1.7810750863
 H         -0.0107636007       -2.1904720891       -0.1750347732
 H         -0.0668906450        2.6807707683        0.1941226094
 H         -1.0340933747        3.6707160776        1.5802425327
 H         -1.6788113318        5.9410337851        2.1742801473
 H         -3.8581709545        7.3068000892        3.0880740473
 H         -3.6333266913        7.7557752060        1.4015878513
 H         -5.2178024632        7.2046896264        1.9613155933
 H         -5.7396123033        5.0268387760        1.2971720252
 H         -6.6547869871        2.9414107659        3.0159938389
 H         -9.0208201612        3.6327075857        3.2426634695
 H        -10.3981540206        3.9863746259        1.2359032722
 H        -10.4794727551        4.4017037908       -1.1735025286
 H        -10.1207307348        2.7350700411       -1.6290420053
 H         -9.0809309195        4.0400335860       -2.1987679765
 H         -7.0538208486        2.9958794875       -1.2277855598
 H          0.9242305754        3.9396480097       -0.9517570026
 H          1.5490401974        6.2838933079       -1.1452152157
 H          3.7178068451        7.7716347516       -1.8286312271
 H          3.4893682644        7.9860861743       -0.0970765153
 H          5.0764705392        7.5222032512       -0.7233127609
 H          5.6028336079        5.2788233679       -0.3384950370
 H          6.1404132266        3.7579669429        2.1807038978
 H          8.4438625941        4.5679770938        2.5928251271
 H         10.1306910537        4.4449992491        0.8081692318
 H         10.2588190845        2.4711552672       -1.7035234372
 H          9.3869101285        3.6448446457       -2.6865686188
 H         10.6353752193        4.1900335263       -1.5541692888
 H          7.2253586759        2.7403956192       -1.8150236083
 H          7.1518621099        0.8905698690        0.1915259774
 H          8.3768824143       -3.9142037286       -0.8514527333
 H          8.1938407782       -6.1370312270        0.1846501815
 H          6.7469392489       -6.4813895484        2.1480618998
 H          5.8811834323       -4.6648582579        4.3564228717
 H          4.7255992854       -5.5803245116        3.3948378775
 H          4.5452181817       -3.8263865202        3.5667199423
 H          5.7093837691       -2.3426830369        2.0919522024
 H          7.3237343984       -0.3398259182       -2.2999631684
 H          9.4156943094        0.4292471283       -3.3448735665
 H         11.5887027982       -0.0802317547       -2.2996138010
 H         12.3740238636       -0.5847175797        0.5848269186
 H         12.8096751600       -1.6427976267       -0.7543398587
 H         11.9701719622       -2.2998754208        0.6597333679
 H          9.5749795447       -2.1338516797        0.8541749503
 H          4.6231514979       -2.4932065271       -0.3342989115
 H          2.5480093361       -2.7652518863        1.8257687207
 H          2.3395584476       -5.2292062682        1.7932678687
 H          1.9052836540       -6.3983933476       -0.3344489321
 H          1.7031102287       -5.1114897051       -2.4275652813
 H          1.9223234569       -2.6481215478       -2.3883377357
 H         -5.9596035519       -2.8191921519        1.7201019417
