  107
 
 C         -4.7436126447       -1.1632203484        1.7353666162
 C         -4.9964811082        0.2354992580        1.1568694486
 C         -5.6602440708        1.0730758020        2.2582595445
 C         -5.9954727662        0.1131159174       -0.0064806225
 C         -3.7107255504        0.8799185975        0.6493437200
 C         -3.4010186371        2.1549670533        0.9034665059
 C         -2.2079726984        2.7679838672        0.3727237066
 C         -1.3754994788        2.1056322982       -0.4264130425
 C         -1.5984322698        0.6877953100       -0.9091457160
 C         -2.0812237141        0.9005892289       -2.4271271306
 C         -2.2738760226       -0.3905166257       -3.2449372254
 C         -1.2468610185        1.9069303264       -3.2442902417
 C         -3.4762266514        1.5754056747       -2.3958373549
 C         -0.1734706913        0.0123515325       -0.4265953407
 C          0.1878370219       -1.6148926820       -0.2638916672
 C         -0.6563563886       -2.7404129302        0.5218591804
 C         -1.0466835649       -2.4419480015        1.9787273126
 C         -1.9116700249       -3.2163271652       -0.2393679923
 C          0.2123167160       -4.0172556368        0.6278196567
 C          0.2663232476       -2.2387457216       -1.6294441400
 C          1.3372323584       -2.8682125625       -2.1118090825
 C          2.5778743855       -2.9604986883       -1.3816404099
 C          2.7100324727       -2.4058921505       -0.1746273329
 C          3.9890893947       -2.4806607056        0.6471947417
 C          3.7625886350       -3.3468241708        1.8968105753
 C          4.4220644264       -1.0728820508        1.0836010684
 C          5.1463897837       -3.0985938482       -0.1471142350
 C          1.5956408199       -1.5721727823        0.4088450972
 C          0.9364165453        0.4848297236       -1.3864627970
 C          0.9958939164        0.0202153405       -2.6965562900
 C          2.0079835550        0.3310283733       -3.5877841410
 C          3.0253199851        1.1764535180       -3.1935124237
 C          2.9876654212        1.6969543967       -1.9204585426
 C          1.9703614921        1.3614222825       -1.0190026146
 N          2.0426396897        1.9033864617        0.2499225234
 C          2.9222734785        3.0020561309        0.4825070354
 C          2.4973648450        4.2885047517        0.1753891680
 C          3.3403859882        5.3646050597        0.3907158072
 C          4.6071426454        5.1617386291        0.9128179218
 C          5.0308621869        3.8792733736        1.2211628279
 C          4.1928796026        2.7987783237        1.0075927917
 C          1.1312801537        1.5474070356        1.2275758392
 C          1.3245812470        2.0982010101        2.4987392120
 C          0.4535061475        1.8541236630        3.5348383206
 C         -0.6481510256        1.0635508162        3.2818522564
 C         -0.8252859652        0.5095742104        2.0273699867
 C          0.0489602329        0.6855730760        0.9579731657
 C         -2.7971093603        0.0128239962       -0.1882693496
 H         -4.3533823022       -1.8446790344        0.9859594157
 H         -5.6785554879       -1.5793022229        2.1063601008
 H         -4.0490351063       -1.1079583261        2.5712157816
 H         -4.9641148636        1.2661886878        3.0715600521
 H         -6.0219833077        2.0218846773        1.8700078740
 H         -6.5148030318        0.5333120006        2.6620233445
 H         -6.1599361208        1.0834413424       -0.4703875555
 H         -5.6399652831       -0.5821273968       -0.7632399839
 H         -6.9498199797       -0.2565085368        0.3635996335
 H         -4.0312214428        2.7881210950        1.5062495976
 H         -2.0015866420        3.7911019980        0.6591031961
 H         -0.4960391578        2.5937975459       -0.8182329453
 H         -3.1184388808       -0.2659600804       -3.9215509653
 H         -2.4878178108       -1.2479434766       -2.6144601372
 H         -1.4154792314       -0.6220640269       -3.8665452397
 H         -1.4438096816        2.9219156519       -2.9055672306
 H         -1.5525858040        1.8442902762       -4.2878637504
 H         -0.1804932690        1.7377090278       -3.2010298449
 H         -4.2739612606        0.9014897188       -2.1075148581
 H         -3.7050282068        1.9324522488       -3.3991138055
 H         -3.4914440093        2.4313386295       -1.7295256281
 H         -2.0191387663       -1.9722225052        2.0600577181
 H         -0.3133914654       -1.8214524418        2.4845457704
 H         -1.1143519523       -3.3823424994        2.5244318006
 H         -1.6396405570       -3.9293654146       -1.0145864452
 H         -2.5740343461       -3.7301129063        0.4557970368
 H         -2.4656980995       -2.4146776760       -0.7070378177
 H          0.6300914857       -4.3144586107       -0.3273591436
 H         -0.4218482124       -4.8312413792        0.9774334509
 H          1.0224853684       -3.9058108671        1.3387945014
 H         -0.6500579351       -2.2491552383       -2.1929626145
 H          1.2971545795       -3.3438243207       -3.0833469487
 H          3.3709184200       -3.5196376615       -1.8508137227
 H          4.6893680628       -3.4315403922        2.4610536548
 H          3.4426463532       -4.3470540411        1.6117020355
 H          3.0112987212       -2.9120589132        2.5517687454
 H          5.3957935647       -1.1192205068        1.5684053256
 H          4.5002296862       -0.4227712499        0.2136384641
 H          3.7161554336       -0.6408757590        1.7887391882
 H          6.0509783309       -3.0901309671        0.4581373739
 H          5.3387154019       -2.5308823192       -1.0548582238
 H          4.9330288689       -4.1312404228       -0.4123208246
 H          1.4857698937       -1.8041973557        1.4684771616
 H          1.9843813014       -0.5592502741        0.3785363428
 H          0.2069723746       -0.5964419572       -3.0654436804
 H          1.9854339805       -0.0814059957       -4.5855018847
 H          3.8311398161        1.4371286110       -3.8639807793
 H          3.7673901949        2.3708178051       -1.6000693982
 H          1.5070251913        4.4370070152       -0.2302401608
 H          3.0062125554        6.3631044484        0.1501736802
 H          5.2638564011        6.0024547642        1.0799706555
 H          6.0176968714        3.7178775115        1.6293384964
 H          4.5152566505        1.7970278058        1.2472700491
 H          2.1762883350        2.7392348184        2.6654452625
 H          0.6266704870        2.2885886053        4.5085371266
 H         -1.3789329774        0.8721566795        4.0537996634
 H         -1.7261850105       -0.0435322967        1.9036528678
 H         -2.4169275494       -0.7815650929        0.4401878421
 H         -3.4197823207       -0.4841347673       -0.9309979586
