  112
 
 C        -12.6231582772        0.4953143979       -1.4411733152
 C        -12.3391512641        1.6154093532       -0.6760799509
 C        -11.0846765585        1.7863506303       -0.1233892693
 C        -10.0861426640        0.8354395281       -0.3374858265
 N         -8.8132026340        1.0065350580        0.2173593668
 C         -8.2451524927        2.2838155388        0.2943663585
 C         -8.4305632942        3.2068219730       -0.7351079863
 C         -7.8729538265        4.4678513119       -0.6474663302
 C         -7.1183620320        4.8269108920        0.4579861915
 C         -6.9280950439        3.9126879252        1.4817051092
 C         -7.4881919128        2.6522139740        1.4065228779
 C         -8.0988354820       -0.1048599056        0.6815601105
 C         -8.7578445751       -1.1328412666        1.3583294983
 C         -8.0472498294       -2.2326265637        1.8019570302
 C         -6.6861338900       -2.3291756678        1.5772254472
 C         -6.0098178124       -1.3081165001        0.9054702360
 C         -4.5672278531       -1.4121783898        0.6451713560
 C         -3.6704990519       -0.4752920947        1.2214293911
 C         -4.1239667113        0.5135166482        2.1135098675
 C         -3.2491971497        1.3660023887        2.7545260793
 C         -1.8825288709        1.2311821455        2.5512552531
 C         -1.4056968910        0.2594193986        1.6922247710
 C         -2.2692679382       -0.5845686746        0.9794902256
 C         -1.7669809264       -1.6229544193        0.1298509965
 C         -0.3513413499       -1.7669284690       -0.1045608846
 C          0.2669166596       -2.9945481011        0.2028938796
 C          1.6205868916       -3.1620482504        0.1169615477
 C          2.4556069640       -2.1208254315       -0.3464263393
 C          3.8500740429       -2.2760816715       -0.4630807478
 C          4.6409413872       -1.2657091733       -0.9335341152
 C          4.0888369176       -0.0243923933       -1.3309812561
 C          4.8815220908        1.0281815283       -1.8495396814
 C          6.3483294059        0.9519166436       -1.9132191266
 C          7.0045123284        1.2111382035       -3.1171605428
 C          8.3858490682        1.1826335414       -3.1783794447
 C          9.1344410221        0.9126022931       -2.0484864917
 C          8.4952195849        0.6710351751       -0.8314765322
 N          9.2464203544        0.4233918607        0.3245475514
 C         10.4326622460        1.1293221013        0.5518396944
 C         10.5433257538        2.4690675614        0.1771570618
 C         11.7192862549        3.1594409640        0.3981875750
 C         12.7985778599        2.5337787322        1.0016214024
 C         12.6927418784        1.2048515599        1.3801255432
 C         11.5241313489        0.5032573383        1.1552895114
 C          8.8026843929       -0.5226430324        1.2562679664
 C          8.2139636919       -1.7123347675        0.8277045901
 C          7.7757847949       -2.6439909093        1.7487062368
 C          7.9218821814       -2.4107062433        3.1067154864
 C          8.5109561862       -1.2328839857        3.5381350058
 C          8.9457802656       -0.2920223455        2.6247111835
 C          7.1036856309        0.6874089297       -0.7757475068
 C          4.2622266042        2.1861673340       -2.3180031648
 C          2.8981036669        2.3501527121       -2.2559435938
 C          2.0793652582        1.3407205208       -1.7196905712
 C          0.6736790257        1.4687586414       -1.6589246186
 C         -0.1058262971        0.4786763967       -1.1337575781
 C          0.4602849406       -0.7103163561       -0.6226801788
 C          1.8626214742       -0.8924929957       -0.7342744316
 C          2.6793395231        0.1434727179       -1.2556134859
 C         -2.6794603139       -2.5672126240       -0.4404302346
 C         -2.2506991883       -3.5324981454       -1.3632065083
 C         -3.1322609523       -4.4253010042       -1.9460055439
 C         -4.4871094811       -4.3472789136       -1.6579501546
 C         -4.9519602139       -3.3645673706       -0.8069253666
 C         -4.0773457778       -2.4614574146       -0.1751985333
 C         -6.7263281262       -0.1988739169        0.4673465865
 C        -10.3766771544       -0.2887760577       -1.1112232269
 C        -11.6366641613       -0.4545000067       -1.6530742837
 H        -13.6055413411        0.3639763712       -1.8693497631
 H        -13.1034787900        2.3585119036       -0.5002798203
 H        -10.8692283350        2.6556309219        0.4808288967
 H         -9.0109775419        2.9263113999       -1.6020833198
 H         -8.0225161939        5.1726166707       -1.4526179726
 H         -6.6824563874        5.8126048504        0.5219108890
 H         -6.3487285786        4.1879317702        2.3507402324
 H         -7.3522595805        1.9456609414        2.2123731239
 H         -9.8205858101       -1.0587585185        1.5351310355
 H         -8.5613535559       -3.0204738736        2.3332370036
 H         -6.1329514370       -3.1851020040        1.9347766066
 H         -5.1816069312        0.5891865619        2.3116767047
 H         -3.6263464652        2.1187945485        3.4310055520
 H         -1.1874645358        1.8731018735        3.0724240190
 H         -0.3392246292        0.1440418051        1.5728351996
 H         -0.3478912541       -3.7919692580        0.5967825910
 H          2.0740404836       -4.0942880880        0.4226798384
 H          4.2875824597       -3.2239857163       -0.1830914757
 H          5.7047150475       -1.4166788095       -1.0301054384
 H          6.4246801643        1.4140919661       -4.0053454026
 H          8.8867144597        1.3673255367       -4.1177428477
 H         10.2129688087        0.8881228010       -2.0982158910
 H          9.7001758017        2.9629880512       -0.2835122140
 H         11.7899338299        4.1967850082        0.1044612618
 H         13.7148656320        3.0776171525        1.1757470242
 H         13.5303294375        0.7067494367        1.8465495735
 H         11.4486718220       -0.5355690256        1.4422755652
 H          8.1140731353       -1.9022243515       -0.2312220205
 H          7.3278536850       -3.5642784039        1.4035520041
 H          7.5808340484       -3.1423413076        3.8237437635
 H          8.6257985082       -1.0407303729        4.5950896550
 H          9.3959837781        0.6297757964        2.9634190536
 H          6.6074730858        0.5232595076        0.1702156101
 H          4.8799102689        2.9789381676       -2.7169118802
 H          2.4404424011        3.2600139362       -2.6169464732
 H          0.2199256756        2.3702945894       -2.0459222258
 H         -1.1792541374        0.5957049115       -1.1082575088
 H         -1.2079683700       -3.5730234077       -1.6389459843
 H         -2.7637369210       -5.1677514823       -2.6386834904
 H         -5.1822027896       -5.0350237250       -2.1173324748
 H         -6.0130587668       -3.2746132151       -0.6315986464
 H         -6.2149868579        0.5887220839       -0.0677084649
 H         -9.6064588169       -1.0254925853       -1.2879232128
 H        -11.8466788780       -1.3280308143       -2.2531907808
