  57
 
 C         -2.7917252602        2.6472443378        3.2534995133
 C         -2.4842104133        1.3333768358        3.5754819454
 C         -2.2656140863        0.3896487740        2.5803496536
 C         -2.3605268644        0.7884651812        1.2645887461
 C         -2.6706103885        2.1160472394        0.9332410688
 C         -2.8868945610        3.0524466941        1.9314436136
 C         -2.7047304143        2.2335883465       -0.5165031723
 C         -2.9609546633        3.3183801464       -1.3397117748
 C         -2.9260154946        3.1325496392       -2.7127822849
 C         -2.6404324277        1.8884521625       -3.2561370747
 C         -2.3833202987        0.7966883598       -2.4372218364
 C         -2.4175683666        0.9772972035       -1.0713661198
 C         -2.1754909410       -0.0422318541        0.0162973702
 C         -3.1078234799       -1.2284882680       -0.0506897514
 C         -4.4788516207       -1.2408321642       -0.0198249223
 C         -5.1392250246       -2.4675174004       -0.0887022640
 C         -4.4213809421       -3.6587755650       -0.1866507306
 C         -3.0439319513       -3.6611100994       -0.2203700118
 C         -2.3647829688       -2.4352879439       -0.1531450761
 C         -0.9830461658       -2.1249559401       -0.1687589407
 C          0.1716477208       -2.9310034611       -0.2524633961
 C          1.4014507137       -2.3482373217       -0.2300418525
 C          1.5888703581       -0.9254370143       -0.1449119762
 C          2.8793892123       -0.3479883634       -0.1483717519
 C          3.0885871545        1.0343980006       -0.4171440003
 C          4.3278780803        1.5857290335       -0.4533706245
 C          5.5046748220        0.8137054065       -0.1966394373
 C          6.7794018949        1.3592245805       -0.2189384865
 C          7.8992154112        0.5703823882        0.0437194417
 C          7.7450836590       -0.7810456254        0.3344510811
 C          6.4928589835       -1.3512877018        0.3625409854
 C          5.3326457527       -0.5744152531        0.0949713127
 C          4.0598047990       -1.1252149641        0.1113068512
 C          0.4015444907       -0.1226455410       -0.0674995868
 C         -0.8199525394       -0.7070301779       -0.0736048112
 H         -2.9587773942        3.3635967185        4.0451317223
 H         -2.4149415196        1.0400988058        4.6129842566
 H         -2.0268411088       -0.6338491689        2.8319431189
 H         -3.1266813871        4.0766326516        1.6862484499
 H         -3.1837352804        4.2891041622       -0.9218786331
 H         -3.1238083322        3.9671841122       -3.3700390344
 H         -2.6181658394        1.7667485639       -4.3294277928
 H         -2.1613954953       -0.1720708834       -2.8615648372
 H         -5.0394908852       -0.3201006148        0.0573378501
 H         -6.2184060346       -2.4944671037       -0.0647453213
 H         -4.9595706719       -4.5947094205       -0.2373860277
 H         -2.4920388000       -4.5859571342       -0.2968142229
 H          0.0730263388       -4.0033133488       -0.3387424699
 H          2.2708816806       -2.9787413943       -0.3259541163
 H          2.2389363939        1.6595129293       -0.6453020441
 H          4.4508442820        2.6335735447       -0.6895074270
 H          6.9029961756        2.4101996672       -0.4403879876
 H          8.8845860036        1.0114212788        0.0224471862
 H          8.6166602107       -1.3861311027        0.5407084857
 H          6.3732737471       -2.4014736192        0.5868017038
 H          3.9648119408       -2.1658073901        0.3772139110
 H          0.4784068021        0.9483842253        0.0360707866
