  66
 
 C         -7.3595946536        3.1146617584       -1.4809372661
 C         -7.1259283204        2.6790803952       -0.0272141096
 C         -8.4182905693        2.0848505389        0.5508576750
 C         -6.7655251152        3.9225382574        0.7902054232
 C         -6.0362602926        1.6201550256        0.0045478769
 C         -6.2134302152        0.4273434455       -0.6953400114
 C         -5.2551991316       -0.5632711898       -0.6934748754
 C         -4.0594895894       -0.4063975027        0.0097948658
 C         -3.0360578112       -1.4509852920        0.0170853729
 C         -3.4044083275       -2.8043749633        0.0314061694
 C         -2.4711102312       -3.8202259683        0.0481592516
 C         -1.1272317090       -3.4676031327        0.0428115180
 N         -0.0085512626       -4.2585963617        0.0527516248
 C          1.1099434107       -3.4789372865        0.0403215778
 C          2.4738972196       -3.8360875562        0.0473660023
 C          3.4043350332       -2.8474662098        0.0421272877
 C          3.0726945614       -1.4382921495        0.0199102186
 C          4.0577506963       -0.4460400039        0.0123030662
 C          5.4632630591       -0.7287935772        0.1716818255
 C          6.4117917424        0.2486217633        0.1650160842
 C          6.0885921495        1.6094096018       -0.0070214051
 C          7.1131285910        2.7207637265       -0.0262707637
 C          7.0444243686        3.4453249622       -1.3808458700
 C          6.8000219660        3.7164411359        1.1027424311
 C          8.5435821070        2.2112682676        0.1701582963
 C          4.7166162329        1.9102740806       -0.1686621398
 C          3.7517912623        0.9532443654       -0.1560793135
 C          1.6543751062       -1.1110203980        0.0043601280
 C          0.7226858606       -2.1064470057        0.0191786990
 C         -0.7275174138       -2.1069329581        0.0237156516
 C         -1.6759398935       -1.1089964968        0.0147557285
 C         -3.8784670770        0.7871129163        0.7075864981
 C         -4.8456843407        1.7733953485        0.7064597036
 H         -8.1265338023        3.8854367460       -1.5229898527
 H         -7.6817354178        2.2804582456       -2.0979157385
 H         -6.4416210027        3.5169618861       -1.9046013652
 H         -8.7565122881        1.2315421371       -0.0304361069
 H         -8.2550391087        1.7560376650        1.5752266037
 H         -9.2086311073        2.8327970922        0.5497453143
 H         -6.6167614147        3.6725641992        1.8381876260
 H         -5.8656639506        4.3966027114        0.4050275916
 H         -7.5776794106        4.6444620432        0.7293773682
 H         -7.1188502486        0.2633641082       -1.2611145359
 H         -5.4224810372       -1.4629548462       -1.2679902100
 H         -4.4536511652       -3.0578097049        0.0574581945
 H         -2.7758197702       -4.8563887084        0.0703903650
 H         -0.0126996625       -5.2654792660        0.0670677727
 H          2.7637665291       -4.8772039047        0.0542321407
 H          4.4435466401       -3.1305501758        0.0320946834
 H          5.7844042845       -1.7458582738        0.3278601923
 H          7.4417332249       -0.0422971845        0.3007244886
 H          7.2505412073        2.7477419001       -2.1900477290
 H          7.7820694590        4.2445862362       -1.4158616189
 H          6.0626167499        3.8794858486       -1.5476791179
 H          5.8138075273        4.1555131970        0.9809567916
 H          6.8321516079        3.2126186028        2.0666135567
 H          7.5335818246        4.5202043566        1.1071555067
 H          8.8257467541        1.5228335272       -0.6231556590
 H          9.2350439402        3.0514899715        0.1477178527
 H          8.6522229691        1.7123402147        1.1304867008
 H          4.4172697981        2.9388957330       -0.3107877262
 H          2.7285493195        1.2573631530       -0.3037043995
 H          1.3340674614       -0.0840230854        0.0049507172
 H         -1.3778506427       -0.0724093878       -0.0201813491
 H         -2.9768486758        0.9351455828        1.2843151890
 H         -4.6543924139        2.6713661163        1.2717104540
