  58
 
 N          5.8377289627       -3.9696444683       -0.3699305655
 C          6.0119647148       -2.8280156908       -0.2951754213
 C          6.3013706422       -1.4706809026       -0.2100232855
 C          7.6714697841       -1.2379910993       -0.2547027166
 N          8.8220917287       -1.1228160256       -0.2987172465
 C          5.3205218833       -0.4524424368       -0.0996190847
 C          5.5627992295        0.9671417076       -0.0117394920
 C          6.7417216147        1.7042305478        0.0132094124
 C          6.6687253878        3.0837253630        0.1058536111
 C          5.4424678523        3.7411824065        0.1746856403
 C          4.2579272419        3.0268994380        0.1531242546
 C          4.3114237164        1.6438228465        0.0614665392
 C          3.2729426475        0.6512922823        0.0275893221
 C          1.9040083946        0.7625783516        0.0638803538
 C          1.1047675433       -0.3877083023       -0.0101672212
 C         -0.3372603691       -0.2950063943        0.0015650635
 C         -1.1414435405       -1.2587095928       -0.6375380363
 C         -2.5093769314       -1.1676666971       -0.6353544066
 C         -3.1559917972       -0.0999888836        0.0104951329
 N         -4.5328713101       -0.0044590006        0.0156802721
 C         -5.3258196621       -1.1585363393        0.0007000732
 C         -4.9477970115       -2.2837166266        0.7376485709
 C         -5.7395940604       -3.4151414725        0.7246287614
 C         -6.9120279319       -3.4421942444       -0.0160446005
 C         -7.2924069941       -2.3254582181       -0.7457530667
 C         -6.5086950559       -1.1883865138       -0.7415860110
 C         -5.1566670561        1.2495280352        0.0362948637
 C         -6.3121153998        1.4471743505        0.7956073450
 C         -6.9282232616        2.6831564167        0.8052619006
 C         -6.4066707841        3.7326995617        0.0631274724
 C         -5.2610380712        3.5391528920       -0.6944398394
 C         -4.6358729502        2.3077585280       -0.7124351411
 C         -2.3645410460        0.8681518714        0.6526754145
 C         -0.9975067126        0.7689497264        0.6467851787
 C          1.7451846683       -1.6544426022       -0.0974233651
 C          3.1077333164       -1.7865936945       -0.1166246003
 C          3.9132337231       -0.6373547404       -0.0684293438
 H          7.7024025166        1.2141957750       -0.0379881744
 H          7.5826037217        3.6602372142        0.1246168080
 H          5.4219458905        4.8189809390        0.2454032609
 H          3.3076410694        3.5378799533        0.2063919469
 H          1.4500426518        1.7409195660        0.1027448964
 H         -0.6731664106       -2.0619438835       -1.1840395805
 H         -3.0989667413       -1.9005428330       -1.1654174011
 H         -4.0465501346       -2.2544710565        1.3316620978
 H         -5.4445309258       -4.2776681672        1.3028452172
 H         -7.5273033995       -4.3287555222       -0.0224939307
 H         -8.2010127651       -2.3437600965       -1.3282402574
 H         -6.7952082588       -0.3251268208       -1.3232151458
 H         -6.7076982023        0.6343149627        1.3858348227
 H         -7.8160765767        2.8309036649        1.4011201159
 H         -6.8919822685        4.6965434586        0.0734974921
 H         -4.8574068347        4.3494898436       -1.2824530205
 H         -3.7567218621        2.1495281333       -1.3190517896
 H         -2.8448869295        1.6744443280        1.1864453673
 H         -0.4182792155        1.4990540783        1.1895308804
 H          1.1388066845       -2.5471747816       -0.1068055918
 H          3.5586451881       -2.7658511599       -0.1668261829
