  73
 
 C         -2.5640766267        5.5716986422       -1.0857492586
 C         -3.0204544515        4.4635916169       -2.0289683159
 C         -3.5659553287        3.2316089454       -1.3020208830
 C         -2.4806013806        2.4709447298       -0.5404981427
 C         -2.9342669419        1.1503861299        0.0994144402
 C         -4.0715292408        1.3109128966        1.1149110890
 C         -3.6995349043        2.1845010675        2.3081418103
 C         -3.3263877650        0.1274430954       -0.9846397856
 N         -3.3979058602       -1.2174753242       -0.4756917389
 C         -4.5329293084       -1.9097531132       -0.1415701395
 C         -5.8618685319       -1.5253947533       -0.2175544868
 C         -6.8271582531       -2.4455456230        0.1876192614
 C         -8.1885333092       -2.0853060053        0.1238247401
 N         -9.2984739063       -1.7924817167        0.0713821632
 C         -6.4802608034       -3.7236676749        0.6593342680
 C         -5.1587966029       -4.1034202025        0.7309134330
 C         -4.1762146788       -3.2032013583        0.3319204495
 C         -2.7488849398       -3.2713006684        0.2752776300
 C         -1.8226813323       -4.2624729420        0.5901105397
 C         -0.4848016660       -4.0019384314        0.4067237880
 C         -0.0505614191       -2.7559696168       -0.0831126606
 C          1.3324835695       -2.5227624661       -0.2423711755
 C          2.5184989154       -2.3174398185       -0.3613371642
 C          3.9051139984       -2.1131468843       -0.5083040599
 C          4.6734408157       -3.0841978584       -1.1563048784
 C          6.0315550818       -2.9208807980       -1.3155819914
 C          6.6809403419       -1.7834655478       -0.8252416193
 C          8.0854609095       -1.5917246929       -0.9674412429
 C          8.6974306539       -0.4881239247       -0.4768240572
 C          7.9595424366        0.5267137717        0.2013211702
 C          8.5707530135        1.6699054504        0.7201909252
 C          7.8252896329        2.6349305578        1.3733311146
 C          6.4585556653        2.4864608747        1.5242597377
 C          5.8042081584        1.3594505887        1.0221144659
 C          4.3978240285        1.1707599133        1.1599833951
 C          3.7846376956        0.0669304269        0.6707657924
 C          4.5208849346       -0.9495819655       -0.0030059961
 C          5.9187709584       -0.7899649578       -0.1603171224
 C          6.5596041886        0.3646734425        0.3529123328
 C         -0.9618200540       -1.7528278870       -0.4037866621
 C         -2.3099188429       -2.0193599496       -0.2245890540
 H         -2.2618575248        6.4486666007       -1.6546137929
 H         -3.3737086131        5.8610339690       -0.4184125455
 H         -1.7167950918        5.2522891449       -0.4844020668
 H         -2.1863450859        4.1660409159       -2.6692901522
 H         -3.8072121276        4.8587306804       -2.6769751785
 H         -4.3500073955        3.5511601212       -0.6138454085
 H         -4.0191383987        2.5729520593       -2.0454550717
 H         -2.0786091955        3.1099109356        0.2451851081
 H         -1.6602348337        2.2524360298       -1.2299119593
 H         -2.0692931640        0.7407489570        0.6354199791
 H         -4.9522192283        1.7260816046        0.6215919301
 H         -4.3412502490        0.3186910618        1.4860413311
 H         -2.7951968201        1.8130831658        2.7863673049
 H         -3.5333098846        3.2150008494        2.0063201602
 H         -4.5029788436        2.1735254965        3.0418485438
 H         -4.2986841341        0.3824857513       -1.4083485051
 H         -2.5860134312        0.1487204889       -1.7909040462
 H         -6.1643253862       -0.5511684757       -0.5699829337
 H         -7.2665485357       -4.3988823465        0.9629494460
 H         -4.8885461546       -5.0842556468        1.0910372046
 H         -2.1519056480       -5.2180381411        0.9696408138
 H          0.2565568715       -4.7511460844        0.6429989707
 H          4.1831015766       -3.9691736942       -1.5368508633
 H          6.6098395967       -3.6802005976       -1.8228782492
 H          8.6538624405       -2.3564681594       -1.4784087399
 H          9.7642583554       -0.3531533620       -0.5885942169
 H          9.6383494981        1.7944328909        0.6059483804
 H          8.3154024902        3.5132397151        1.7689965337
 H          5.8835977265        3.2456843408        2.0353951382
 H          3.8288801307        1.9354102664        1.6701349549
 H          2.7185496009       -0.0710857936        0.7829364777
 H         -0.6095983920       -0.8062597130       -0.7834826591
