  52
 
 C         -4.9663478583       -2.7228247575       -0.0233217925
 C         -3.7244121167       -1.8902027553        0.0141816586
 C         -2.6896521131       -2.1727240992        0.9004450255
 C         -1.5527061627       -1.3926810551        0.9586443738
 C         -0.4955717012       -1.7097123244        1.9688171557
 C         -1.3723396451       -0.3111676138        0.0481981411
 B          0.0005304918        0.4049785876       -0.0002584952
 C          0.0017756742        1.9681435994        0.0013844572
 C         -1.0273844439        2.6934519589        0.6229607982
 C         -1.0210996349        4.0725304899        0.6213706489
 C          0.0040603075        4.7749519612        0.0034892138
 C          1.0280945554        4.0717950742       -0.6153974764
 C          1.0321601694        2.6927101753       -0.6190090472
 C          1.3723672980       -0.3131810008       -0.0499616166
 C          2.4490562287       -0.0100390123        0.8255194443
 C          2.3599875494        1.1286003288        1.7940665631
 C          3.5751967864       -0.8053269257        0.8404062760
 C          3.7229533462       -1.8945316670       -0.0196981589
 C          4.9628069071       -2.7304080240        0.0155517172
 C          2.6877377462       -2.1739383785       -0.9066747928
 C          1.5514846605       -1.3929006096       -0.9627730870
 C          0.4937962358       -1.7064727496       -1.9735132493
 C         -2.4487917257       -0.0047389973       -0.8265351862
 C         -2.3584374338        1.1360007455       -1.7924698127
 C         -3.5755611183       -0.7988443486       -0.8433406273
 H         -5.8497490637       -2.0961152359       -0.1335017505
 H         -5.0651587922       -3.3185245313        0.8811800516
 H         -4.9339646590       -3.4025453198       -0.8767556219
 H         -2.7931963901       -3.0070511572        1.5815743739
 H         -0.8570278213       -2.4353640145        2.6941370981
 H          0.3879210020       -2.1213387762        1.4789695185
 H         -0.1829505836       -0.8070928664        2.4911267919
 H         -1.8236307516        2.1654464990        1.1276130229
 H         -1.8216072544        4.6072933828        1.1146857221
 H          0.0049618348        5.8548329042        0.0043480761
 H          1.8295964095        4.6059542972       -1.1077487371
 H          1.8276204822        2.1642084394       -1.1243896782
 H          3.0460899740        0.9794592035        2.6253183392
 H          1.3457293409        1.2292516906        2.1758205857
 H          2.6130057371        2.0703843673        1.3067060992
 H          4.3715647133       -0.5810578895        1.5375165411
 H          5.0807706417       -3.2935397034       -0.9074866065
 H          5.8444393925       -2.1104240775        0.1684212776
 H          4.9094545663       -3.4412624886        0.8423203292
 H          2.7906743692       -3.0066981779       -1.5897998737
 H          0.8543911013       -2.4307838964       -2.7005921107
 H          0.1820819728       -0.8022864620       -2.4936466118
 H         -0.3900294472       -2.1183263274       -1.4844864437
 H         -2.6105082282        2.0769326224       -1.3029793958
 H         -3.0446269532        0.9894826304       -2.6241214905
 H         -1.3440473562        1.2364409822       -2.1739161515
 H         -4.3718359184       -0.5723443711       -1.5398464493
