  113
 
 C         -8.7159235320       -1.3550436223       -4.3958877426
 C         -8.2285209780       -0.2081587538       -3.7734130464
 C         -7.2344095625       -0.2730337775       -2.8158316747
 C         -6.7374592328       -1.5246315044       -2.4822232714
 C         -7.2076136664       -2.6913271946       -3.1272194218
 C         -8.2073440698       -2.6005367349       -4.0867094781
 C         -6.4527757000       -3.7887804717       -2.5897967303
 C         -6.4681897887       -5.1591184212       -2.8133828212
 C         -5.6005925188       -5.9566561017       -2.0942906670
 C         -4.7371347116       -5.4057617903       -1.1501736625
 C         -4.7040545725       -4.0454105867       -0.9098555137
 C         -5.5550579372       -3.2359374757       -1.6482986933
 N         -5.7390625717       -1.8681737085       -1.5903719575
 C         -5.0191117682       -0.9826883837       -0.7794069793
 C         -3.6296221984       -1.0317849252       -0.7643241709
 C         -2.9084701037       -0.1476277646        0.0308968235
 C         -1.4434973728       -0.1634148106        0.0233601053
 C         -0.7052752439       -1.3252199790        0.0101382981
 C          0.6975721274       -1.3293159255        0.0049998225
 C          1.4425187905       -0.1720379242       -0.0214450801
 C          2.9075573309       -0.1648361577       -0.0291093956
 C          3.5906253788        0.7453905710       -0.8273541626
 C          4.9789370338        0.8000566002       -0.8021790938
 N          5.6495897540        1.7417061056       -1.5872998340
 C          5.3199933694        3.0823794433       -1.6861599661
 C          4.3262555033        3.8014291504       -1.0365411110
 C          4.2326248025        5.1540310492       -1.3048180753
 C          5.1069482156        5.7865298831       -2.1857590998
 C          6.1121321110        5.0804232176       -2.8153391061
 C          6.2258733786        3.7193769858       -2.5641889061
 C          7.1360161823        2.7065247180       -3.0214267610
 C          8.2104942969        2.7180520502       -3.9006902593
 C          8.8733332367        1.5332453329       -4.1509981948
 C          8.4648751685        0.3449525396       -3.5503193531
 C          7.3987428449        0.3088414410       -2.6717343757
 C          6.7462340406        1.5013791784       -2.3937642751
 C          5.6935830822       -0.0766684363        0.0079065153
 C          5.0133443481       -1.0028455622        0.7907261070
 N          5.7281711907       -1.8832010739        1.6117465038
 C          6.7285997380       -1.5353316415        2.4996348501
 C          7.2328455032       -0.2829265363        2.8189605125
 C          8.2273699436       -0.2129279366        3.7757518236
 C          8.7081233304       -1.3554601821        4.4112650453
 C          8.1922858309       -2.6014151074        4.1162985109
 C          7.1919902441       -2.6973156152        3.1578952385
 C          6.4307465410       -3.7964114349        2.6330111251
 C          6.4381956789       -5.1641776192        2.8722069746
 C          5.5659360567       -5.9647988499        2.1622396719
 C          4.7056530020       -5.4196879020        1.2118882196
 C          4.6804778244       -4.0619953473        0.9560767544
 C          5.5362132634       -3.2491219634        1.6852582655
 C          3.6235927617       -1.0440417712        0.7761621674
 C          0.7219240850        1.0455734006       -0.0270150872
 N          1.2217140441        2.2832862175       -0.0406221240
 S          0.0096665636        3.3356863456       -0.0190253325
 N         -1.2084601180        2.2906451089        0.0145357290
 C         -0.7158533866        1.0499803208        0.0150646403
 C         -3.5862178623        0.7755879786        0.8186912241
 C         -4.9741901114        0.8380201339        0.7928483270
 N         -5.6393395064        1.7924315592        1.5671654415
 C         -6.7373237159        1.5676753971        2.3762923902
 C         -7.3967276229        0.3821877530        2.6678164125
 C         -8.4625930446        0.4344911142        3.5459104459
 C         -8.8641242808        1.6319004876        4.1330015792
 C         -8.1944352533        2.8099134346        3.8692238914
 C         -7.1200805760        2.7821356254        2.9901728075
 C         -6.2040970005        3.7844150139        2.5214441324
 C         -6.0824502386        5.1475518777        2.7570711579
 C         -5.0732131416        5.8405944962        2.1195097407
 C         -4.2026108734        5.1930364891        1.2458545269
 C         -4.3040993523        3.8380313562        0.9930053941
 C         -5.3019650951        3.1322090443        1.6507521469
 C         -5.6939383564       -0.0437169582       -0.0072177773
 H         -9.4955234719       -1.2621966096       -5.1372010868
 H         -8.6337797941        0.7546294309       -4.0476569853
 H         -6.8509177767        0.6251081068       -2.3557469160
 H         -8.5721828413       -3.4881323685       -4.5811289893
 H         -7.1494891486       -5.5876083530       -3.5327861823
 H         -5.5943362193       -7.0243829628       -2.2551284374
 H         -4.0817894191       -6.0569466420       -0.5905173728
 H         -4.0463293626       -3.6301977435       -0.1608447946
 H         -3.1144260820       -1.7286760100       -1.4075002607
 H         -1.2212290083       -2.2738612018        0.0246626510
 H          1.2080171122       -2.2810363475        0.0013166142
 H          3.0417694116        1.4016680175       -1.4820519641
 H          3.6470966004        3.3295436746       -0.3434857741
 H          3.4638241182        5.7345269360       -0.8161601307
 H          4.9981548764        6.8451084076       -2.3697624307
 H          6.7999896530        5.5712777590       -3.4871799891
 H          8.5137299864        3.6363030402       -4.3805524222
 H          9.7132290864        1.5202516076       -4.8295113042
 H          8.9901483690       -0.5706350471       -3.7790158563
 H          7.0793949556       -0.6238008392       -2.2317690626
 H          6.7711769559       -0.0353788933        0.0352423472
 H          6.8545611317        0.6121303570        2.3486662554
 H          8.6382410930        0.7505486264        4.0390072029
 H          9.4882924660       -1.2587085988        5.1514794852
 H          8.5519779993       -3.4854258529        4.6208087863
 H          7.1170292562       -5.5883962676        3.5964563946
 H          5.5534721024       -7.0305678884        2.3352414154
 H          4.0464983330       -6.0733850099        0.6596839048
 H          4.0251426578       -3.6515287714        0.2023698860
 H          3.1043812114       -1.7305521629        1.4272249577
 H         -3.0335423539        1.4360900375        1.4658841533
 H         -7.0828180069       -0.5572427742        2.2385087469
 H         -8.9931609687       -0.4753679934        3.7850100417
 H         -9.7040495548        1.6315105828        4.8116025255
 H         -8.4923149240        3.7353148559        4.3385896851
 H         -6.7674164625        5.6500120065        3.4232628301
 H         -4.9582706102        6.9005514698        2.2914430467
 H         -3.4304776237        5.7634572425        0.7506304103
 H         -3.6277220117        3.3543467553        0.3053851507
 H         -6.7712752684        0.0035139552       -0.0350626532
