  62
 
 C         -4.1469492202       -1.2600491064       -2.1514121215
 C         -4.2090595498       -0.0008730896       -1.2814353870
 C         -4.1468670589        1.2570894511       -2.1531613305
 C         -5.4435836178       -0.0002216083       -0.4076433953
 C         -6.7691547483       -0.0004530078       -0.7841699082
 C         -7.7457471842        0.0002610992        0.2030949561
 C         -7.3985338000        0.0011915556        1.5450397217
 C         -6.0683367910        0.0014356137        1.9323914352
 C         -5.0922074795        0.0007254570        0.9500682189
 C         -3.6416613846        0.0007647884        1.0500653364
 C         -2.8062619386        0.0015472242        2.1546747068
 C         -1.4365852837        0.0013904133        1.9532669667
 C         -0.9004516141        0.0004476875        0.6689321796
 C          0.5686117251        0.0003057767        0.4799896552
 C          1.2581255222       -1.2151201246        0.3919499862
 C          0.5834679029       -2.4615294758        0.4723533324
 C          1.2645946799       -3.6362099040        0.3861826559
 C          2.6641380455       -3.6372806476        0.2149789510
 C          3.3484163174       -2.4640664920        0.1329450434
 C          2.6766095637       -1.2161252967        0.2167456601
 C          3.3650295665        0.0000471334        0.1331685943
 C          4.8351613884       -0.0000812149       -0.0438264760
 C          5.3896757054       -0.0009583109       -1.3212384210
 C          6.7591374432       -0.0010760004       -1.4919997101
 C          7.5954238363       -0.0003110114       -0.3747263563
 C          8.9987019521       -0.0003509930       -0.5430423723
 N         10.1371306733       -0.0005894595       -0.6797919190
 C          7.0469204621        0.0005675837        0.9085686862
 C          5.6759084138        0.0006869426        1.0663221075
 C          2.6767327278        1.2163457300        0.2159312560
 C          3.3486572800        2.4641608104        0.1311999041
 C          2.6644958117        3.6374998502        0.2124158891
 C          1.2649535331        3.6366869143        0.3836293294
 C          0.5837121009        2.4621348977        0.4706409874
 C          1.2582506513        1.2156028481        0.3911470783
 C         -1.7441142212       -0.0003492742       -0.4412397190
 C         -3.1067885716       -0.0001750440       -0.2464732795
 H         -4.1947551441       -2.1504603009       -1.5278107087
 H         -3.2191908527       -1.2822025295       -2.7185846042
 H         -4.9818393034       -1.2793324481       -2.8479501313
 H         -4.1945983361        2.1483698652       -1.5307969240
 H         -3.2191144820        1.2783864090       -2.7203759040
 H         -4.9817652582        1.2754671323       -2.8497141644
 H         -7.0518076133       -0.0011829698       -1.8270372847
 H         -8.7887897824        0.0000847754       -0.0781075766
 H         -8.1748719491        0.0017361446        2.2963886843
 H         -5.7999582790        0.0021668648        2.9785113308
 H         -3.2115155060        0.0022765852        3.1555711017
 H         -0.7647373574        0.0020054333        2.7997729690
 H         -0.4886819501       -2.4558336093        0.6040426207
 H          0.7397852863       -4.5781331441        0.4483788239
 H          3.1876545432       -4.5797688116        0.1495030363
 H          4.4209449424       -2.4648693376        0.0014436853
 H          4.7360549461       -0.0015188929       -2.1812671311
 H          7.1907959775       -0.0017432068       -2.4821831361
 H          7.7003541933        0.0011609185        1.7686773815
 H          5.2440104835        0.0014039565        2.0564247735
 H          4.4211828928        2.4647649211       -0.0003236375
 H          3.1881071025        4.5798893216        0.1462818090
 H          0.7402382028        4.5787052072        0.4451703425
 H         -0.4884411146        2.4566378766        0.6023118583
 H         -1.3166124810       -0.0010828766       -1.4338704564
