  52
 
 O          7.3425373742        0.2458243471       -1.2046642764
 C          6.0900493995        0.8855914365       -1.1564828304
 C          5.1173618659        0.2563174012       -0.1882107812
 C          5.5825020905       -0.4168064925        0.9349744759
 C          4.6858721552       -0.9911467817        1.8202595238
 C          3.3264170185       -0.8998331499        1.5950520996
 C          2.8385343751       -0.2194057777        0.4768312178
 C          1.3986970872       -0.1086720936        0.2351475536
 C          0.6121008298       -1.2924985764        0.0755009812
 C          1.1945767863       -2.5611744398        0.0679891733
 C          0.4315509364       -3.7134668700       -0.1237498730
 C         -0.9212298254       -3.6083099571       -0.3504449036
 C         -1.5230519258       -2.3500230576       -0.3873860349
 C         -0.7906814306       -1.1835842948       -0.1596273824
 C         -1.3987999178        0.1089842283       -0.2337024506
 C         -2.8385246827        0.2198008911       -0.4759915318
 C         -3.3257596135        0.9003362419       -1.5944359209
 C         -4.6850747880        0.9916812875       -1.8204354638
 C         -5.5822252250        0.4172734833       -0.9357199591
 C         -5.1177461173       -0.2559185359        0.1876964708
 C         -6.0910153518       -0.8852732116        1.1553337870
 O         -7.3436072140       -0.2456498877        1.2026633816
 C         -3.7532936906       -0.3525033686        0.4082431877
 C         -0.6122210456        1.2928044229       -0.0739072955
 C         -1.1947029052        2.5614774926       -0.0663263156
 C         -0.4316661170        3.7137654690        0.1254238724
 C          0.9211245233        3.6086045667        0.3520693020
 C          1.5229472961        2.3503152804        0.3889652779
 C          0.7905583943        1.1838880130        0.1611979773
 C          3.7527839357        0.3528730798       -0.4079576474
 H          7.2068242436       -0.6806725920       -1.4328112907
 H          6.3048011871        1.9128877410       -0.8414316022
 H          5.6367255526        0.9282947636       -2.1585947022
 H          6.6462704471       -0.4822921679        1.1094065310
 H          5.0521462425       -1.5091775044        2.6945746512
 H          2.6274966469       -1.3316247080        2.2965080917
 H          2.2613397763       -2.6565361639        0.2002851724
 H          0.9138613655       -4.6794046948       -0.1067489241
 H         -1.5224608060       -4.4898968801       -0.5152615794
 H         -2.5764119265       -2.2809833876       -0.6114551272
 H         -2.6264205052        1.3321752874       -2.2954449522
 H         -5.0508321395        1.5098264595       -2.6948997013
 H         -6.6458908734        0.4827960306       -1.1107612525
 H         -6.3054419728       -1.9126004414        0.8401592815
 H         -5.6383597244       -0.9279080284        2.1577505249
 H         -7.2081552042        0.6808690543        1.4308780586
 H         -3.3871350302       -0.8599837754        1.2900463283
 H         -2.2614677064        2.6568437168       -0.1986045546
 H         -0.9139743095        4.6797041366        0.1084565565
 H          1.5223618653        4.4901888409        0.5168733881
 H          2.5763207058        2.2812591217        0.6129687264
 H          3.3860938542        0.8602929804       -1.2895746636
