  82
 
 F         -1.8272912174       -5.8015683899       -0.2203512509
 C         -3.0534178705       -5.4083705681       -0.6348648484
 F         -3.9307630559       -6.1648185268        0.0407921765
 F         -3.1361663551       -5.7925469314       -1.9236158780
 C         -3.2695012891       -3.9401865755       -0.4570362101
 C         -4.0898482262       -3.4543577722        0.5595203912
 C         -4.2593947303       -2.0976810120        0.7155260731
 C         -3.6013598626       -1.2019703599       -0.1379239104
 N         -3.7817593452        0.1678869197       -0.0002837251
 C         -2.7856231831        1.1651945921       -0.0131490269
 C         -1.3978947908        1.0017292093        0.0514242782
 C         -0.5819759055        2.1500948772       -0.1912573954
 C          0.7733018734        2.0770195643       -0.1656479482
 C          1.4517596209        0.8593541240        0.1153712064
 C          2.8833087168        0.7692706343        0.1100382077
 C          3.5427499138       -0.4615458615       -0.0988140178
 C          4.9112494852       -0.5527618947       -0.1091867880
 C          5.7012351517        0.5843414345        0.0932447297
 N          7.0923855013        0.4933406985        0.0851285117
 C          7.9537605707        1.3263708349       -0.6032945695
 C          7.6684738536        2.3741519157       -1.4678450400
 C          8.7315145983        3.0317401053       -2.0579015554
 C         10.0488555062        2.6550664617       -1.8084598018
 C         10.3382042928        1.5932063362       -0.9726227581
 C          9.2875024723        0.9185853648       -0.3682085963
 C          9.2183679288       -0.2156948619        0.5122561317
 C         10.1790807777       -1.0226736103        1.1041069329
 C          9.7634178531       -2.0385328515        1.9438280302
 C          8.4112393845       -2.2399395452        2.2094711129
 C          7.4362726617       -1.4482637136        1.6321302787
 C          7.8457429268       -0.4458564489        0.7636984071
 C          5.0687143521        1.8146279499        0.3038697997
 C          3.6999543277        1.9032255380        0.3093788948
 C          0.6385308334       -0.2619046287        0.4252917815
 C         -0.7204175244       -0.2027070071        0.4048746737
 N         -3.3630556566        2.3813129224        0.0157953637
 C         -4.6723185152        2.2089725843        0.1166354779
 C         -5.5728352386        3.3483454830        0.1399445607
 C         -5.1282462972        4.5404408783        0.7149536134
 C         -5.9481866395        5.6504734905        0.7451940090
 C         -7.2181180009        5.5924687568        0.1919845941
 C         -7.6570700961        4.4210449805       -0.4042846668
 C         -6.8437902036        3.3045448281       -0.4345737551
 C         -4.9902780749        0.8194029420        0.1240387592
 C         -6.2780999186        0.1809668721        0.1826594842
 C         -6.6062813619       -0.9029740468       -0.6448518550
 C         -7.8544014678       -1.4848167333       -0.5706172815
 C         -8.7993037032       -1.0122055477        0.3284679078
 C         -8.4890012483        0.0637299866        1.1486459519
 C         -7.2475588699        0.6582936636        1.0781385703
 C         -2.7739332867       -1.6995882556       -1.1563271197
 C         -2.6094620545       -3.0553495610       -1.3115862634
 H         -4.5878468794       -4.1431779093        1.2238092769
 H         -4.8844193817       -1.7176658000        1.5083355514
 H         -1.0885754427        3.0721300857       -0.4274004729
 H          1.3496907958        2.9567397476       -0.4073859586
 H          2.9616327376       -1.3472746533       -0.3027948915
 H          5.3909848903       -1.4989692032       -0.3116435159
 H          6.6509989491        2.6594853498       -1.6868910527
 H          8.5352609329        3.8525940965       -2.7315127016
 H         10.8520746116        3.1954448178       -2.2865400258
 H         11.3583417748        1.2879506961       -0.7957121296
 H         11.2281553339       -0.8534575147        0.9144471366
 H         10.4947299721       -2.6801165059        2.4120722182
 H          8.1174157746       -3.0290263702        2.8854911802
 H          6.3929560563       -1.5986337548        1.8633671247
 H          5.6704252913        2.6899026276        0.4997605741
 H          3.2426508091        2.8573892984        0.5191169627
 H          1.1106869106       -1.1803113142        0.7401650823
 H         -1.2887718694       -1.0628877772        0.7205200470
 H         -4.1361255626        4.5686714795        1.1380686045
 H         -5.5990837671        6.5656204668        1.2005670916
 H         -7.8607470955        6.4601160757        0.2171887700
 H         -8.6384645964        4.3787902972       -0.8536549236
 H         -7.1838850273        2.4048358086       -0.9245687256
 H         -5.8906631361       -1.2598324161       -1.3704308755
 H         -8.0953490481       -2.3119636019       -1.2218364140
 H         -9.7718761620       -1.4765566227        0.3871052840
 H         -9.2204619329        0.4357878383        1.8507531816
 H         -7.0019617136        1.4854316578        1.7276431714
 H         -2.2771712699       -1.0085652983       -1.8196779111
 H         -1.9826812491       -3.4422941454       -2.1002269044
