45

O      3.994271    1.138685    0.359616
C      2.824560    0.787643    0.238943
C      2.285140   -0.294556    1.080231
C      3.156068   -0.904301    2.000814
C      2.701294   -1.906780    2.852429
C      1.371685   -2.299888    2.795809
C      0.504458   -1.696068    1.882156
C      0.943585   -0.686457    0.991403
C     -0.053402   -0.033040   -0.016761
C     -0.552325   -1.216651   -0.937619
C      0.200393   -1.608794   -2.067171
C     -0.194566   -2.680574   -2.873205
C     -1.337542   -3.406684   -2.559163
C     -2.077313   -3.071665   -1.430843
C     -1.682882   -1.999714   -0.624063
C     -1.190969    0.718757    0.786768
C     -0.901006    1.359496    2.012856
C     -1.878221    2.071207    2.717332
C     -3.162604    2.180542    2.198717
Br    -4.483216    3.142903    3.146983
C     -3.474591    1.596581    0.976888
C     -2.495453    0.885364    0.274340
C      0.612961    1.065089   -0.904465
C     -0.129690    1.714466   -1.920640
C      0.433642    2.710134   -2.722260
C      1.757644    3.081827   -2.536617
C      2.516039    2.448362   -1.556469
C      1.951868    1.444359   -0.749335
H      4.197797   -0.592072    2.058949
H      3.382436   -2.371754    3.560236
H      1.003830   -3.075865    3.462843
H     -0.533094   -2.021882    1.883036
H      1.117634   -1.088872   -2.337889
H      0.400460   -2.952112   -3.741754
H     -1.641302   -4.242698   -3.183430
H     -2.958392   -3.652134   -1.168413
H     -2.274723   -1.799514    0.266463
H      0.098456    1.324221    2.442988
H     -1.619013    2.541681    3.662419
H     -4.471129    1.695166    0.554062
H     -2.774589    0.471372   -0.692585
H     -1.164871    1.440726   -2.111262
H     -0.164813    3.191472   -3.492023
H      2.203373    3.855947   -3.155660
H      3.558111    2.736075   -1.424655
