  90
 
 C          9.1596175689       -2.2100698537       -1.8641161724
 C          8.7620251690       -1.5200735904       -0.5441847036
 C          9.9051348421       -1.6417498794        0.4829061541
 C          8.5105642414       -0.0534267784       -0.8230224168
 C          9.5289669081        0.7306762649       -1.3484265030
 C          9.3454713229        2.0690482669       -1.6441258767
 C          8.1063824751        2.6522245063       -1.4262130863
 C          7.0778366197        1.9003205813       -0.9045811310
 C          7.2659057860        0.5486537325       -0.5806041306
 N          6.2187460503       -0.1753383213       -0.0470394796
 C          4.9783961305        0.4785891747        0.1996154662
 C          4.8369349510        1.3254289923        1.2969460248
 C          3.6257710131        1.9296785018        1.5504637101
 C          2.5174408697        1.7049714147        0.7213919113
 C          1.2294552881        2.3124235264        1.0130707008
 C          1.1429000393        3.6064723851        1.4795708699
 N         -0.0032887061        4.2478936862        1.7067731656
 C         -1.1503287933        3.6079640029        1.4778856938
 C         -1.2358708166        2.3138783867        1.0119900492
 C         -2.5231165780        1.7075205584        0.7149613408
 C         -2.6925212899        0.8905133161       -0.4110033862
 C         -3.8999617656        0.2842648833       -0.6738024234
 C         -4.9807238011        0.4777756941        0.1850824150
 N         -6.2173070320       -0.1786214593       -0.0654692922
 C         -7.2931664229        0.5613083162       -0.5154285525
 C         -7.1357225119        1.9329774038       -0.7630974822
 C         -8.1944981339        2.7005762735       -1.1934729406
 C         -9.4342680080        2.1138408153       -1.3970649079
 C         -9.5867749828        0.7561081836       -1.1842009347
 C         -8.5374107043       -0.0439741174       -0.7519563876
 C         -8.7553472679       -1.5312419262       -0.5732300988
 C         -9.1818663071       -2.1281725431       -1.9290473241
 C         -9.8624286148       -1.7519483796        0.4765374639
 C         -7.5001513706       -2.2341361018       -0.1013833047
 C         -7.5237195114       -3.6053443616        0.1164000113
 C         -6.4169882654       -4.2934690638        0.5784839909
 C         -5.2488916701       -3.5990272659        0.8540805445
 C         -5.1948068464       -2.2389761475        0.6470513576
 C         -6.3050896118       -1.5411773171        0.1487731138
 C         -4.8371324188        1.3070991066        1.2960138939
 C         -3.6281256658        1.9137112226        1.5531452038
 C         -0.0037035449        1.5943791037        0.8134917971
 C         -0.0085094567        0.2327483099        0.6060077776
 N         -0.0165885358       -0.9216596715        0.4507875419
 C          2.6850824649        0.8685267874       -0.3905477589
 C          3.8943603479        0.2636210928       -0.6491173276
 C          6.3342792578       -1.5193290667        0.2501130379
 C          5.2455776698       -2.2009401177        0.8138507586
 C          5.3287795662       -3.5428477520        1.1102492233
 C          6.5045491891       -4.2337230889        0.8591257806
 C          7.5880694657       -3.5607939260        0.3250215448
 C          7.5347927300       -2.2082483157        0.0153874949
 H          9.3658377909       -3.2635463585       -1.7008792149
 H          8.3495931462       -2.1253391155       -2.5862338098
 H         10.0476047654       -1.7504322926       -2.2875336338
 H         10.1205235999       -2.6841143684        0.6977356688
 H          9.6239439477       -1.1497889990        1.4122342440
 H         10.8113261522       -1.1760228946        0.1072585717
 H         10.4951089612        0.2891642837       -1.5364494612
 H         10.1591961080        2.6506520099       -2.0495309037
 H          7.9402716955        3.6915265734       -1.6664020125
 H          6.1113471501        2.3523635157       -0.7468907753
 H          5.6784962375        1.4888834796        1.9545281939
 H          3.5155256943        2.5598623915        2.4205374191
 H          2.0352515309        4.1997168547        1.6343897831
 H         -2.0426509415        4.2023389292        1.6282012895
 H         -1.8646737949        0.7416868419       -1.0882492707
 H         -4.0166677165       -0.3445264054       -1.5445761305
 H         -6.1692319518        2.3895633702       -0.6200307286
 H         -8.0511533749        3.7551608359       -1.3743781019
 H        -10.2718344048        2.7076607859       -1.7296331429
 H        -10.5529689972        0.3115733320       -1.3645907684
 H         -9.3557904802       -3.1964693679       -1.8419614068
 H         -8.4000146357       -1.9656765005       -2.6687300956
 H        -10.0951946851       -1.6615335767       -2.2857179088
 H         -9.5495597538       -1.3464103258        1.4369744288
 H        -10.0687520075       -2.8106103411        0.6018460024
 H        -10.7819381729       -1.2580511975        0.1771014716
 H         -8.4300764264       -4.1576150888       -0.0764405553
 H         -6.4677011427       -5.3604056411        0.7328362897
 H         -4.3791061636       -4.1139518881        1.2330012418
 H         -4.2852212823       -1.7051257028        0.8730708505
 H         -5.6753872641        1.4537880811        1.9617645166
 H         -3.5155842191        2.5299995333        2.4328441646
 H          1.8546366904        0.7029673436       -1.0605842274
 H          4.0094636970       -0.3807894825       -1.5085782555
 H          4.3302348568       -1.6681023873        1.0182596796
 H          4.4757866191       -4.0467564809        1.5389403461
 H          6.5783607492       -5.2864554098        1.0851641818
 H          8.4993215467       -4.1103703286        0.1479870372
