  140
 
 F          2.7939888288       -2.5978900812       -2.4337688412
 C          2.5143433124       -3.2283466135       -1.2751403000
 C          2.4522191567       -4.6091148703       -1.2595804991
 C          2.1736615066       -5.2589064650       -0.0695849842
 C          1.9576975972       -4.5330908757        1.0895453027
 C          2.0278500860       -3.1536245594        1.0429022752
 F          1.8176562004       -2.4492164761        2.1748465970
 C          2.3037924663       -2.4564840617       -0.1333368899
 N          2.3828346212       -1.0427273330       -0.1765980928
 C          1.2066351146       -0.3060272052       -0.1295048702
 C         -0.0061191206       -0.9737627193        0.0086232314
 C         -1.2103637063       -0.2871328455        0.1290068110
 C         -1.2091645143        1.1254722633        0.2123650326
 C          0.0111517179        1.7518571039       -0.0257405919
 C          1.2232111687        1.1039814239       -0.2474278257
 B          2.5628249234        1.7955664841       -0.5708623315
 C          2.8661759805        3.2491017281       -0.9950143836
 C          1.9082329076        4.1787136236       -1.4208342103
 C          2.2246125435        5.4806460317       -1.7384529429
 C          3.5443055656        5.9037937381       -1.6377464652
 C          4.5265900168        5.0138024980       -1.2693198532
 C          4.2131391907        3.6793939228       -0.9719711377
 N          5.2444254878        2.8071845730       -0.6693926963
 C          6.5721043685        3.3268973865       -0.5736151631
 C          7.0592295845        3.7348860425        0.6608949114
 C          8.3513358324        4.2203156485        0.7648222830
 C          9.1574747112        4.2977603796       -0.3586138031
 C          8.6700115504        3.8930248224       -1.5908618526
 C          7.3791445317        3.4069338027       -1.7020513666
 C          5.0833562975        1.4513579461       -0.4826104100
 C          6.2027060887        0.6318850311       -0.3466337555
 C          6.0445731814       -0.7308758190       -0.1352903089
 N          7.1696891635       -1.5504958903        0.0131544282
 C          7.1723628164       -2.8405761382       -0.5285162110
 C          6.5488265118       -3.0999735629       -1.7496420869
 C          6.5537132588       -4.3767171978       -2.2771235506
 C          7.1790802754       -5.4138506515       -1.6039691531
 C          7.8030502960       -5.1616508523       -0.3927460238
 C          7.7996530571       -3.8891800083        0.1453392767
 C          8.3024644440       -1.0658665558        0.6783221836
 C          8.1672495258       -0.2558842203        1.8060727657
 C          9.2864910350        0.2308755222        2.4528492866
 C         10.5555231188       -0.0874880119        1.9966684397
 C         10.6960174758       -0.8985656148        0.8822451025
 C          9.5822766288       -1.3816557867        0.2224627778
 C          4.7707083812       -1.2892834057       -0.0653095536
 C          3.6511773791       -0.4828009847       -0.2310627763
 C          3.7835107150        0.9056620673       -0.4333532324
 B         -2.5393343924        1.8418942972        0.5216916618
 C         -2.8237014872        3.3103643989        0.9068603122
 C         -1.8527564968        4.2413744525        1.2989719494
 C         -2.1524208149        5.5551461118        1.5821622973
 C         -3.4683049217        5.9896649146        1.4805749052
 C         -4.4628254625        5.1003490456        1.1449373587
 C         -4.1660023132        3.7549978708        0.8816331179
 N         -5.2091754878        2.8867967253        0.6101252072
 C         -6.5313041006        3.4192680304        0.5078000482
 C         -7.0188828103        3.8050803361       -0.7336613265
 C         -8.3059026482        4.3025638934       -0.8433882614
 C         -9.1067817702        4.4133208606        0.2810687402
 C         -8.6188251261        4.0307488788        1.5201687906
 C         -7.3327304363        3.5334986739        1.6372546139
 C         -5.0645674959        1.5249916476        0.4563283913
 C         -6.1942353222        0.7158083932        0.3462971781
 C         -6.0535662625       -0.6528930318        0.1625246456
 N         -7.1884399530       -1.4622127082        0.0366420090
 C         -7.1981775094       -2.7473872769        0.5904725706
 C         -6.5693481995       -3.0012509011        1.8099998950
 C         -6.5817047308       -4.2732405890        2.3487558112
 C         -7.2197989583       -5.3109903877        1.6886275277
 C         -7.8492752487       -5.0641858089        0.4791566644
 C         -7.8386108344       -3.7965102883       -0.0700612266
 C         -8.3232665637       -0.9761461698       -0.6243465783
 C         -9.6010255457       -1.2745701412       -0.1513561569
 C        -10.7172654445       -0.7909952145       -0.8065259881
 C        -10.5811145760        0.0033627277       -1.9334459141
 C         -9.3141376494        0.3040624737       -2.4069433736
 C         -8.1925623450       -0.1834089027       -1.7647614233
 C         -4.7864381788       -1.2270470840        0.0969973019
 C         -3.6567119539       -0.4308777077        0.2415385420
 C         -3.7712242101        0.9633657996        0.4130190468
 N         -2.3956032302       -1.0076968223        0.1943457619
 C         -2.3344739703       -2.4227972720        0.1736866126
 C         -2.5592655847       -3.1752094635        1.3258016801
 F         -2.8351274318       -2.5248061625        2.4742782707
 C         -2.5147826828       -4.5567256888        1.3306621791
 C         -2.2401910345       -5.2276206458        0.1515194190
 C         -2.0103079525       -4.5216536837       -1.0171342854
 C         -2.0627759840       -3.1409069835       -0.9909517596
 F         -1.8383492457       -2.4561832588       -2.1322528922
 H          2.6223952763       -5.1532434262       -2.1741972246
 H          2.1239035241       -6.3350010985       -0.0451299605
 H          1.7401193143       -5.0163241011        2.0282736024
 H         -0.0129351361       -2.0532139606        0.0229055475
 H          0.0184399660        2.8274729013       -0.0396286855
 H          0.8845395229        3.8543712137       -1.5232164423
 H          1.4554506634        6.1681408629       -2.0598441697
 H          3.8078997141        6.9272367435       -1.8646989818
 H          5.5514176179        5.3502697222       -1.2221464187
 H          6.4215379060        3.6675143528        1.5301399064
 H          8.7292796088        4.5358764357        1.7258026290
 H         10.1657199170        4.6747526299       -0.2745679290
 H          9.2966152736        3.9536232445       -2.4683773929
 H          6.9883190546        3.0866176480       -2.6569381729
 H          7.1994489762        1.0384727393       -0.4072576782
 H          6.0636088652       -2.2941109713       -2.2809946772
 H          6.0719540480       -4.5587104780       -3.2269592183
 H          7.1827479584       -6.4095779258       -2.0211477525
 H          8.2906732131       -5.9635828163        0.1424371296
 H          8.2812377175       -3.6970137106        1.0932087050
 H          7.1788126628       -0.0140827955        2.1686179963
 H          9.1660287003        0.8572291716        3.3248234101
 H         11.4281802665        0.2921945450        2.5064225802
 H         11.6809983305       -1.1499922492        0.5163060697
 H          9.6951903113       -2.0043617659       -0.6532551559
 H          4.6799480316       -2.3471048152        0.1299001510
 H         -0.8317647434        3.9094246585        1.4029690185
 H         -1.3731637131        6.2427846763        1.8779403195
 H         -3.7192090148        7.0217267346        1.6813076147
 H         -5.4844351392        5.4463471741        1.0969237160
 H         -6.3855760083        3.7111090409       -1.6036699038
 H         -8.6841845895        4.6012486883       -1.8096101715
 H        -10.1112636313        4.7991975086        0.1923931280
 H         -9.2412803233        4.1175097294        2.3984346698
 H         -6.9412321371        3.2305788997        2.5975024808
 H         -7.1856302446        1.1354999219        0.4041546716
 H         -6.0739360672       -2.1950988962        2.3312884048
 H         -6.0959843969       -4.4508331252        3.2973828483
 H         -7.2291227588       -6.3029528208        2.1145862822
 H         -8.3470544141       -5.8665965393       -0.0458378056
 H         -8.3245920283       -3.6085006814       -1.0165105903
 H         -9.7102747237       -1.8840925773        0.7340372937
 H        -11.7005989787       -1.0287109643       -0.4272531044
 H        -11.4555971911        0.3836670660       -2.4395989241
 H         -9.1972023394        0.9169139612       -3.2889303863
 H         -7.2058762887        0.0442426302       -2.1409604418
 H         -4.7088972103       -2.2893861482       -0.0781781695
 H         -2.6951801899       -5.0850310805        2.2525359274
 H         -2.2043568134       -6.3045141073        0.1429013067
 H         -1.7952572735       -5.0212514173       -1.9478019169
