  80
 
 C          8.0888681238       -1.6560097280        1.6762340300
 C          6.8237629710       -1.7320648291        2.2353797792
 C          5.7354166165       -1.1881414199        1.5819405694
 C          5.8977085890       -0.5622216750        0.3458176137
 N          4.7966925712       -0.0152624867       -0.3209612382
 C          4.9304406690        1.1708063744       -1.0501527825
 C          4.2181557931        1.3565709917       -2.2351644318
 C          4.3494927548        2.5309251983       -2.9500544977
 C          5.1949871297        3.5337616505       -2.5047197767
 C          5.9065751110        3.3537654455       -1.3298748016
 C          5.7751433025        2.1868185601       -0.6028660872
 C          3.5531001585       -0.6574266788       -0.2572503644
 C          3.4878677137       -2.0541987577       -0.3039242740
 C          2.2811803139       -2.7263128659       -0.2411449454
 C          1.1189363492       -1.9852778650       -0.1432605887
 C          1.1666378993       -0.5554168916       -0.0999732197
 C          2.3837505323        0.0952897745       -0.1505724252
 C         -0.2010745453       -0.0728783553        0.0079680476
 C         -0.9610457868        1.0840465324        0.0882720616
 C         -2.3601058367        0.9544573012        0.1919213385
 N         -3.1234255088        2.1333764331        0.2881493417
 C         -4.3231052409        2.2416661446       -0.4202349450
 C         -5.4154848589        2.9143851258        0.1283361915
 C         -6.5986117532        3.0139963364       -0.5771641338
 C         -6.7196408775        2.4393619988       -1.8318288033
 C         -5.6408180454        1.7639231298       -2.3787341306
 C         -4.4505635883        1.6668148102       -1.6854279383
 C         -2.6820577224        3.1796174248        1.1023529108
 C         -2.8944185637        4.5076863372        0.7308800068
 C         -2.4554448755        5.5365708681        1.5407590860
 C         -1.7906004188        5.2642993747        2.7252555128
 C         -1.5699070155        3.9478149625        3.0954918696
 C         -2.0128944338        2.9117381012        2.2971391274
 C         -3.0459643360       -0.2727032331        0.2064094685
 C         -2.3155015085       -1.4533137624        0.0987057451
 C         -2.4249884371       -2.8997778643        0.0521750840
 C         -3.5311372530       -3.7775000173        0.0823553784
 C         -4.8650606300       -3.3341085970        0.1661389598
 C         -5.9000675377       -4.2282160268        0.1909785881
 C         -5.6491837907       -5.6060870173        0.1339939865
 C         -4.3643211167       -6.0669784562        0.0495991254
 C         -3.2732837847       -5.1755671935        0.0195823589
 C         -1.9443936497       -5.6521349512       -0.0735386248
 C         -0.8731398074       -4.8036412490       -0.1103475167
 C         -1.1127326251       -3.4280178917       -0.0488173118
 N         -0.2091271904       -2.3814531967       -0.0705379669
 C         -0.9446105797       -1.2436922242        0.0161941610
 C          7.1728808850       -0.4941014400       -0.2154928835
 C          8.2562230787       -1.0334904189        0.4500123269
 H          8.9377150793       -2.0786402316        2.1919166440
 H          6.6838930821       -2.2111309710        3.1934039269
 H          4.7516382871       -1.2399136210        2.0251811452
 H          3.5656739170        0.5727319815       -2.5912650053
 H          3.7934597122        2.6598187994       -3.8671344169
 H          5.2981852007        4.4484477633       -3.0684622632
 H          6.5635635701        4.1324144958       -0.9708999649
 H          6.3231280215        2.0546660970        0.3185929508
 H          4.4059633773       -2.6153775293       -0.3931311325
 H          2.2555247440       -3.8041700488       -0.2794545671
 H          2.4323097626        1.1729155074       -0.1078644162
 H         -0.5215967307        2.0697264401        0.0768400776
 H         -5.3296679484        3.3525435408        1.1119742097
 H         -7.4362549428        3.5365134872       -0.1386447055
 H         -7.6473060648        2.5162630784       -2.3783380749
 H         -5.7236840024        1.3150009962       -3.3577780038
 H         -3.6091279348        1.1457806427       -2.1184937950
 H         -3.4016233592        4.7243985303       -0.1979101529
 H         -2.6260094742        6.5598284639        1.2394157746
 H         -1.4465393905        6.0714224711        3.3540264318
 H         -1.0556759985        3.7247236673        4.0189505012
 H         -1.8466744775        1.8863934400        2.5939401521
 H         -4.1207721353       -0.2551143848        0.3008796696
 H         -5.0601704386       -2.2743689626        0.2072328499
 H         -6.9195369659       -3.8764268588        0.2542783649
 H         -6.4773329080       -6.2992435914        0.1558055216
 H         -4.1655404756       -7.1285553624        0.0032535378
 H         -1.7875514642       -6.7202106100       -0.1181722015
 H          0.1360827488       -5.1786117191       -0.1846713095
 H          7.3050230383       -0.0187423799       -1.1764483406
 H          9.2377959263       -0.9747789149        0.0029746106
