  92
 
 C         -8.7753225307       -2.0058101512        0.0001306534
 C         -7.8861529371       -0.7479225947        0.0003206853
 C         -8.7600043877        0.5205744245        0.0004233271
 C         -7.0359351319       -0.7529628992       -1.2569591437
 C         -7.6530119348       -0.7460691961       -2.5005197902
 C         -6.9311278751       -0.7509942106       -3.6803384013
 C         -5.5488767206       -0.7625475990       -3.6270064090
 C         -4.9094616375       -0.7696637299       -2.4048469287
 C         -5.6375678020       -0.7652240732       -1.2113479937
 N         -4.9656178710       -0.7770968509        0.0004667294
 C         -3.5430843573       -0.7943944602        0.0005351057
 C         -2.8576033889       -2.0103770661        0.0011902005
 C         -1.4811674581       -2.0323279617        0.0012164973
 C         -0.7280152009       -0.8509899992        0.0005811063
 C          0.7280860451       -0.8509253544        0.0005619991
 C          1.4813386070       -2.0321985182        0.0011067356
 C          2.8577715657       -2.0101278708        0.0011259156
 C          3.5431498988       -0.7940878238        0.0005258590
 N          4.9656821534       -0.7767071032        0.0004565354
 C          5.6377429009       -0.7634579689        1.2121932478
 C          4.9097400684       -0.7663141959        2.4057597033
 C          5.5492664306       -0.7577768362        3.6278522969
 C          6.9315239678       -0.7463621185        3.6810465490
 C          7.6533044304       -0.7430189434        2.5011596079
 C          7.0361163487       -0.7513569291        1.2576635906
 C          7.8862237085       -0.7480479257        0.0003031610
 C          8.7603555362        0.5202569943       -0.0014579761
 C          8.7751161802       -2.0061287674        0.0019836182
 C          7.0360202850       -0.7547168079       -1.2569786928
 C          7.6531122964       -0.7496632841       -2.5005406224
 C          6.9312385371       -0.7559424737       -3.6803593667
 C          5.5489831188       -0.7668995584       -3.6270272778
 C          4.9095532137       -0.7722252353       -2.4048657343
 C          5.6376493102       -0.7665779123       -1.2113658479
 C          2.8273343958        0.3855581043       -0.0000249036
 C          1.4309236542        0.3708090349       -0.0000279224
 C          0.7135164916        1.6278296138       -0.0007116179
 N          1.3981524934        2.7564293452       -0.0013416346
 C          0.7137651920        3.9098545391       -0.0020104663
 C          1.4056053005        5.1406968754       -0.0026687047
 C          0.7042730709        6.3123370864       -0.0033264019
 C         -0.7048409524        6.3122734767       -0.0033612488
 C         -1.4060667004        5.1405696276       -0.0027414636
 C         -0.7141143948        3.9097904474       -0.0020497623
 N         -1.3983978052        2.7563039797       -0.0014140100
 C         -0.7136601907        1.6277660567       -0.0007438170
 C         -1.4309569246        0.3706831687       -0.0000619300
 C         -2.8273678243        0.3853110276       -0.0000722637
 C         -5.6376916218       -0.7654055850        1.2122129810
 C         -4.9097006984       -0.7698588829        2.4057819186
 C         -5.5492380739       -0.7629614764        3.6278793159
 C         -6.9314957531       -0.7515965905        3.6810751031
 C         -7.6532642925       -0.7465399293        2.5011859885
 C         -7.0360636255       -0.7531947610        1.2576858380
 H         -8.1540195608       -2.8999865780        0.0000498643
 H         -9.4114419115       -2.0306024102        0.8805695344
 H         -9.4113847891       -2.0304003198       -0.8803556180
 H         -8.1275230675        1.4068660841        0.0005897036
 H         -9.3958125942        0.5533700973       -0.8799634267
 H         -9.3959652593        0.5531453606        0.8807088776
 H         -8.7310401581       -0.7368813695       -2.5574066010
 H         -7.4443636579       -0.7456087028       -4.6303461791
 H         -4.9644821692       -0.7658282428       -4.5356579738
 H         -3.8306658898       -0.7769192221       -2.3700917064
 H         -3.4184565884       -2.9332253161        0.0016610031
 H         -0.9883092510       -2.9902316034        0.0017269783
 H          0.9885632381       -2.9901446127        0.0016128117
 H          3.4187034153       -2.9329282162        0.0015144621
 H          3.8309394742       -0.7734889281        2.3711039122
 H          4.9649552006       -0.7598524359        4.5365603367
 H          7.4448454179       -0.7398916181        4.6310014378
 H          8.7313394497       -0.7339533454        2.5579412442
 H          9.3963197808        0.5515351314       -0.8817873686
 H          9.3961759687        0.5540730664        0.8788809392
 H          8.1280687399        1.4066855795       -0.0027933189
 H          9.4113327140       -2.0296886758        0.8823864627
 H          8.1536253673       -2.9001739484        0.0033652847
 H          9.4110717059       -2.0322169686       -0.8785364353
 H          8.7311437108       -0.7408821206       -2.5574283906
 H          7.4444856665       -0.7519731369       -4.6303678159
 H          4.9645978387       -0.7710930001       -4.5356800197
 H          3.8307543089       -0.7789666067       -2.3701106708
 H          3.3316886482        1.3393270526       -0.0004613553
 H          2.4846199387        5.1183477403       -0.0026233256
 H          1.2283704799        7.2564793099       -0.0038261195
 H         -1.2290239024        7.2563682737       -0.0038827719
 H         -2.4850792698        5.1181215657       -0.0027485034
 H         -3.3318039800        1.3390361617       -0.0005787238
 H         -3.8308999032       -0.7769188940        2.3711265884
 H         -4.9649359941       -0.7662332157        4.5365892844
 H         -7.4448263582       -0.7463827370        4.6310324507
 H         -8.7312988697       -0.7374513563        2.5579682098
