70

C      9.628944   -2.093638    2.536287
C      9.397058   -0.722930    2.455593
C      8.201008   -0.246491    1.911884
C      7.216263   -1.130897    1.440794
C      5.956181   -0.628660    0.868643
C      4.720325   -1.044159    1.373623
C      3.509479   -0.579323    0.844332
C      3.541213    0.316413   -0.242465
C      4.756941    0.781854   -0.745016
C      5.963842    0.294075   -0.191689
C      4.471685    1.721660   -1.777759
C      5.291043    2.497628   -2.627701
C      4.711246    3.321098   -3.595401
C      3.331181    3.370220   -3.736075
C      2.499110    2.614418   -2.904860
C      3.083187    1.811864   -1.901608
N      2.520686    0.953020   -0.953752
C      1.122645    0.760177   -0.741210
C      0.608442   -0.526364   -0.564748
C     -0.763881   -0.708412   -0.358221
C     -1.655170    0.379641   -0.311673
C     -3.098875    0.160044   -0.084683
C     -3.889696    1.044264    0.625023
C     -5.226183    0.723605    0.773856
C     -6.177621    1.578293    1.514547
C     -7.235879    1.006152    2.245679
C     -8.142954    1.795955    2.958292
C     -8.014520    3.181131    2.951032
C     -6.983893    3.775275    2.228866
C     -6.077039    2.982259    1.517299
N     -5.741358   -0.411103    0.257803
C     -4.910925   -1.222311   -0.419314
C     -5.470491   -2.464421   -0.991043
C     -4.668316   -3.368688   -1.714906
C     -5.196120   -4.545685   -2.256265
C     -6.543730   -4.847280   -2.086569
C     -7.362580   -3.973712   -1.377929
C     -6.830870   -2.797745   -0.838178
N     -3.602427   -0.977468   -0.605272
C     -1.114286    1.664706   -0.498342
C      0.256861    1.856955   -0.711296
C      7.470266   -2.509597    1.532321
C      8.666279   -2.987681    2.074668
H     10.559020   -2.464786    2.958482
H     10.144687   -0.022157    2.817691
H      8.034818    0.828097    1.868405
H      4.684923   -1.733654    2.216135
H      2.574953   -0.901470    1.293155
H      6.909396    0.641110   -0.601537
H      6.372696    2.447012   -2.538924
H      5.346009    3.911747   -4.250979
H      2.890208    3.995557   -4.509096
H      1.424832    2.642254   -3.058896
H      1.245243   -1.405571   -0.628833
H     -1.143088   -1.722725   -0.235927
H     -3.471880    1.933483    1.077960
H     -7.356964   -0.076206    2.265311
H     -8.948989    1.325273    3.515198
H     -8.720677    3.796614    3.502117
H     -6.887800    4.858010    2.212180
H     -5.299177    3.483701    0.946166
H     -3.610694   -3.156562   -1.865391
H     -4.551411   -5.222771   -2.810563
H     -6.955445   -5.760754   -2.507213
H     -8.416616   -4.202255   -1.243415
H     -7.495279   -2.130838   -0.290316
H     -1.757352    2.542285   -0.493015
H      0.630594    2.873318   -0.813324
H      6.735905   -3.224753    1.167004
H      8.845019   -4.058103    2.133063
