  45
 
 O          1.7268023154        3.8290748901        0.1861797343
 C          1.7622857240        2.5692771560        0.1442426441
 C          1.7272485688        1.7477969424        1.3350552473
 C          1.8666064549        2.3894938151        2.5816625551
 C          2.0119188576        1.6424676279        3.7257882273
 C          1.9924138352        0.2540201627        3.6646071657
 C          1.7951528225       -0.3818604494        2.4486248208
 C          1.6272497547        0.3490352959        1.2817385699
 C          1.1904961083       -0.3371766942       -0.0047535746
 C          1.6800070086       -1.7690672445       -0.0398683099
 C          3.0489364602       -2.0008242256        0.1118801293
 C          3.5534595262       -3.2855811000        0.0761163073
 C          2.6999246751       -4.3621522945       -0.1174186203
 C          1.3418511552       -4.1406798197       -0.2796340991
 C          0.8334321038       -2.8533928086       -0.2430801520
 C         -0.3370011771       -0.2477711345       -0.0585871768
 C         -1.0888369953       -0.5616609462        1.0704970077
 C         -2.4680847458       -0.4782497800        1.0580250587
 C         -3.1078757854       -0.0733078876       -0.1007731263
 Br        -5.0192394594        0.0614531809       -0.1255191254
 C         -2.3872275482        0.2352782799       -1.2394538769
 C         -1.0061794436        0.1447338030       -1.2116748737
 C          1.7878977937        0.4394966773       -1.1646048893
 C          2.0984977582       -0.2049516179       -2.3534074201
 C          2.4783199810        0.5139868677       -3.4760157799
 C          2.5412101783        1.9017875692       -3.4217471090
 C          2.2425848759        2.5649869868       -2.2553487396
 C          1.9112021460        1.8369731985       -1.0958955921
 H          1.9031658691        3.4682535818        2.5963628474
 H          2.1633499880        2.1455618778        4.6697952166
 H          2.1088905624       -0.3350772606        4.5613218532
 H          1.7403495782       -1.4600547541        2.4114591631
 H          3.7127087301       -1.1613145480        0.2607805584
 H          4.6137270220       -3.4497594465        0.1982313103
 H          3.0928100778       -5.3675827841       -0.1449242912
 H          0.6727237874       -4.9734768004       -0.4381188705
 H         -0.2255884093       -2.6944298217       -0.3781305493
 H         -0.5944409144       -0.8734166119        1.9771819962
 H         -3.0382265144       -0.7224529399        1.9409907793
 H         -2.8937017931        0.5441092838       -2.1410220388
 H         -0.4539056462        0.3821109125       -2.1073604171
 H          1.9967682823       -1.2783257786       -2.4128161384
 H          2.7029309691       -0.0086605912       -4.3930657320
 H          2.8409394156        2.4696794801       -4.2904932322
 H          2.2987136691        3.6404746588       -2.1822077901
