  114
 
 C         -2.2540453578       -3.5318271041        1.7480345112
 C         -1.0681483876       -3.2926742194        2.6907407581
 C         -1.5816767693       -2.9722266027        4.1018993632
 C         -0.2525560945       -4.5867223182        2.7648025852
 C         -0.2505537799       -2.1152421664        2.1825208039
 C         -0.8568995631       -0.8565584998        2.0822869671
 C         -0.1725502148        0.2753598023        1.6895286182
 C          1.1714107676        0.1510361619        1.3693986008
 C          1.7842067295       -1.1176332960        1.3928537817
 C          1.0808266253       -2.2353391036        1.8176006440
 C          3.1284630532       -0.9297817476        0.9194671184
 C          4.1839376769       -1.8057955837        0.7096816046
 C          5.3931166942       -1.3254044051        0.2297983222
 C          6.5785116208       -2.2333540550       -0.0588145952
 C          7.7485956006       -1.8374405927        0.8524512582
 C          6.9873777974       -2.0743626506       -1.5304360677
 C          6.2589988695       -3.7108246200        0.1853776115
 C          5.5232136874        0.0522917540        0.0123893683
 C          4.4913737612        0.9461297394        0.2182740260
 C          3.2698679007        0.4469644513        0.6448458719
 N          2.0833017982        1.0967541482        0.9307954177
 C          1.8057270626        2.4561691791        0.7874415604
 C          1.0689676613        3.1123548298        1.7741240677
 C          0.6418262295        4.4063977517        1.5766942487
 C          0.9760479399        5.0886043767        0.4084240250
 C          0.3588588836        6.4223348619        0.1628900249
 O          0.9735787538        7.4892752842        0.0876714992
 C         -1.1196877618        6.3390906015        0.0844154043
 O         -1.8525520934        7.3232419715        0.2152612460
 C         -1.5804050613        4.9578480684       -0.2277422266
 C         -1.1583372280        4.3695469385       -1.4188278257
 C         -1.4276388107        3.0437574558       -1.6740496887
 C         -2.0951372568        2.2676769863       -0.7262296350
 N         -2.2041858311        0.8905804035       -0.9225890274
 C         -3.3148122189        0.0967344577       -0.7094307917
 C         -4.6076855871        0.4417544665       -0.3455209732
 C         -5.5406381078       -0.5689918147       -0.2285700105
 C         -5.2412644604       -1.9140138053       -0.4811704571
 C         -6.3326323443       -2.9580083932       -0.3024905068
 C         -7.5065257696       -2.6321331619       -1.2362626042
 C         -6.8058398954       -2.9361237544        1.1581918731
 C         -5.8485376837       -4.3748890599       -0.6224970816
 C         -3.9556261430       -2.2404949860       -0.8853542941
 C         -2.9935343453       -1.2472784651       -0.9938736030
 C         -1.6068977686       -1.2649455941       -1.3774109399
 C         -0.7324520103       -2.2775191465       -1.7334833008
 C          0.5936772276       -1.9834528765       -2.0299974910
 C          1.5283518905       -3.1089591790       -2.4476510771
 C          0.9900569477       -3.7439348811       -3.7384756870
 C          2.9582950193       -2.6289535929       -2.7110990319
 C          1.5830258559       -4.1623131007       -1.3334874314
 C          1.0150974243       -0.6547879368       -1.9439792171
 C          0.1614924649        0.3758510622       -1.5967783092
 C         -1.1620971789        0.0728823519       -1.3250699400
 C         -2.5958906681        2.8800091319        0.4222540465
 C         -2.3528732810        4.2198326903        0.6606755159
 C          1.8119895926        4.4802004018       -0.5196722843
 C          2.2095571508        3.1682371447       -0.3420334914
 H         -2.8375545972       -4.3846482222        2.0899152152
 H         -2.9088487029       -2.6663609207        1.6998979251
 H         -1.8916456017       -3.7362253061        0.7437483838
 H         -2.1476111769       -3.8143422226        4.4947823467
 H         -0.7463388846       -2.7759353366        4.7708933432
 H         -2.2289470491       -2.0997637544        4.0996222013
 H         -0.8820509622       -5.3901776428        3.1421253230
 H          0.5928838518       -4.4789764005        3.4403144616
 H          0.1096582404       -4.8782023153        1.7816723841
 H         -1.9041127918       -0.7534328560        2.3231042085
 H         -0.6812110727        1.2250201517        1.6215387591
 H          1.5912118657       -3.1827002069        1.8625171352
 H          4.0408394082       -2.8508144093        0.9284886386
 H          8.0612351298       -0.8124355378        0.6736943077
 H          8.6005832891       -2.4896277924        0.6727785635
 H          7.4585934627       -1.9276318107        1.8972871348
 H          6.1539182338       -2.3282740401       -2.1821051051
 H          7.8196994107       -2.7361020866       -1.7602053374
 H          7.2944132912       -1.0560557634       -1.7510996095
 H          5.4351147119       -4.0411489341       -0.4431522030
 H          7.1309613275       -4.3144398628       -0.0579186003
 H          6.0087842437       -3.8913369167        1.2282223223
 H          6.4681275820        0.4466385465       -0.3281080047
 H          4.6477342633        2.0022493086        0.0614055070
 H          0.8326047634        2.5966491532        2.6919655196
 H          0.0472244411        4.8989367040        2.3311181136
 H         -0.6187531130        4.9597432666       -2.1438748791
 H         -1.1202956364        2.5956395130       -2.6063251249
 H         -4.8899663443        1.4686973310       -0.1705757403
 H         -6.5426154719       -0.2958920895        0.0645871312
 H         -7.9426361436       -1.6643210942       -1.0056959740
 H         -8.2838296854       -3.3868136484       -1.1372695288
 H         -7.1700500308       -2.6164852243       -2.2708465195
 H         -7.2161380574       -1.9672136322        1.4286233396
 H         -7.5773280431       -3.6872216350        1.3133186023
 H         -5.9738069404       -3.1531179325        1.8251276074
 H         -6.6639419913       -5.0788559556       -0.4693215484
 H         -5.5280564315       -4.4542697405       -1.6586947993
 H         -5.0276711959       -4.6640403677        0.0296540643
 H         -3.6814966490       -3.2544633806       -1.1215997339
 H         -1.0978952483       -3.2919763855       -1.7785237796
 H          1.6495994239       -4.5447532756       -4.0663232490
 H          0.9332078134       -2.9984035921       -4.5288694867
 H         -0.0031020669       -4.1592531856       -3.5913615451
 H          2.9876255754       -1.9098130807       -3.5264987876
 H          3.5761071394       -3.4792992786       -2.9950002786
 H          3.3901124540       -2.1784440229       -1.8199073884
 H          1.9447408402       -3.7052781295       -0.4165553043
 H          2.2566418361       -4.9700550937       -1.6131309116
 H          0.6030431057       -4.5900426936       -1.1407604056
 H          2.0426969961       -0.4030645302       -2.1475649916
 H          0.5306555392        1.3875385136       -1.5272461131
 H         -3.1369135069        2.2945908906        1.1503287970
 H         -2.7215984805        4.6833749555        1.5630944405
 H          2.1112961824        5.0190552997       -1.4058382414
 H          2.7982094337        2.6800860001       -1.1037543205
