  78
 
 O         -6.4884786492        0.1242413480        1.9266089625
 P         -5.8257664916        0.3479362435        0.6242414803
 C         -6.5464627653       -0.6524933867       -0.7149758471
 C         -7.2091976330       -1.8197087823       -0.3490371493
 C         -7.7090353797       -2.6667590638       -1.3189895741
 C         -7.5334642479       -2.3609161560       -2.6615710834
 C         -6.8639960750       -1.2025729691       -3.0285638914
 C         -6.3650965164       -0.3504012480       -2.0619984884
 C         -5.9876597326        2.0803697245        0.0595660917
 C         -4.9533374396        2.9961424235        0.1770262876
 C         -5.1629280888        4.3179600843       -0.1788535808
 C         -6.4044195382        4.7246257822       -0.6398884916
 C         -7.4435018476        3.8120886018       -0.7418926717
 C         -7.2351115132        2.4906812730       -0.3908159382
 C         -4.0833063819       -0.0673076732        0.6303917194
 C         -3.5625946413       -0.7554662894        1.7505862848
 C         -2.2733100314       -1.1906068212        1.7736320248
 C         -1.4106416793       -0.9434728053        0.6623348832
 N         -0.1040182634       -1.3579929468        0.6859430938
 C          0.3479471914       -2.5792384875        1.1660375634
 C         -0.3778447565       -3.6639282559        1.6313259794
 C          0.3232228235       -4.7987917420        2.0290570447
 C          1.7132092962       -4.8479129946        1.9439381373
 C          2.4466019057       -3.7836133457        1.4385713606
 C          1.7667048564       -2.6412749812        1.0278246963
 C          2.1742759895       -1.4127888258        0.4270218709
 C          3.4052454510       -0.8913799799        0.0522856755
 C          3.4505246587        0.3985043561       -0.4615625121
 P          5.0117241434        1.2013050506       -0.9352310657
 O          4.8400421326        2.2371567035       -1.9715851078
 C          5.7204465802        1.8569721210        0.6128438511
 C          6.5676109687        2.9506676248        0.4947701432
 C          7.1630663097        3.4911515679        1.6205423091
 C          6.9104830897        2.9379923618        2.8660910283
 C          6.0600732480        1.8500370259        2.9855237217
 C          5.4626975663        1.3065235292        1.8616655906
 C          6.1289026868       -0.1437116806       -1.4508227901
 C          6.2342555423       -0.3854705037       -2.8141371402
 C          7.0590257630       -1.3951668787       -3.2769542717
 C          7.7790823267       -2.1641819300       -2.3762127390
 C          7.6793761393       -1.9193608249       -1.0153898237
 C          6.8560641503       -0.9098839381       -0.5484508702
 C          2.2883277763        1.1708899921       -0.6043383199
 C          1.0458162838        0.6634089858       -0.2506834875
 C          0.9856637110       -0.6328156105        0.2364822773
 C         -1.9385964605       -0.2568477596       -0.4671771526
 C         -3.2389041377        0.1439118748       -0.4906689065
 H         -7.3392532719       -2.0317740453        0.7037252552
 H         -8.2352251523       -3.5656774211       -1.0316057740
 H         -7.9209446834       -3.0237655525       -3.4210911141
 H         -6.7334080782       -0.9627041992       -4.0740529026
 H         -5.8592986048        0.5618694241       -2.3448589957
 H         -3.9907707492        2.6692922839        0.5469309534
 H         -4.3564363153        5.0318173880       -0.0932036209
 H         -6.5652864385        5.7564105627       -0.9159515549
 H         -8.4138921017        4.1313949052       -1.0933376705
 H         -8.0331108664        1.7615346989       -0.4600814436
 H         -4.2160439214       -0.8938184275        2.6006177048
 H         -1.8590929108       -1.6415983215        2.6624055870
 H         -1.4559254706       -3.6489381414        1.6637079253
 H         -0.2211459991       -5.6540323906        2.3967226618
 H          2.2278209386       -5.7424716965        2.2620138880
 H          3.5206574663       -3.8411306706        1.3565330145
 H          4.3076520602       -1.4741546464        0.1572435135
 H          6.7407972398        3.3703170368       -0.4869240880
 H          7.8218034791        4.3421100287        1.5270582913
 H          7.3736872706        3.3586361890        3.7464663945
 H          5.8596332159        1.4246332023        3.9581019332
 H          4.7907896471        0.4648636573        1.9522492906
 H          5.6708911757        0.2357752089       -3.4969575681
 H          7.1414220880       -1.5809239622       -4.3378547738
 H          8.4239703444       -2.9525021994       -2.7356364490
 H          8.2481708807       -2.5145432856       -0.3159031578
 H          6.7863532121       -0.7067601000        0.5107759126
 H          2.3845663863        2.1736982037       -0.9922031463
 H          0.1637789710        1.2792272290       -0.3310370191
 H         -1.3125403506       -0.1364309258       -1.3385279916
 H         -3.6453611961        0.6267332627       -1.3662942705
