  70
 
 C         -8.1995725610       -2.8037771487       -0.9996280374
 C         -8.2740448169       -1.4934315458       -1.4421723631
 C         -7.2930077751       -0.5831646571       -1.0956336220
 C         -6.2301050390       -0.9807778330       -0.2896201118
 N         -5.2353533253       -0.0601979699        0.0686656827
 C         -5.4500349632        1.1932340564        0.6099208056
 C         -6.6402968516        1.8116141518        0.9638239378
 C         -6.5699493772        3.0758918174        1.5178688628
 C         -5.3488087737        3.7129657302        1.7253445952
 C         -4.1594343368        3.0925920033        1.3973166656
 C         -4.2050375147        1.8218863235        0.8409606994
 C         -3.1942140351        0.8966183736        0.4077144244
 C         -1.8119170100        0.9551910800        0.3651318962
 C         -1.0973540591       -0.1325933833       -0.1350100984
 C          0.3622653083       -0.1042024484       -0.1846391855
 C          1.1155771782       -1.1416784559        0.4499268645
 C          0.4954545051       -2.1446535199        1.1982458647
 C          1.2231756089       -3.1975334720        1.7494727598
 C          2.5850399234       -3.2634361269        1.5562823293
 C          3.2365163944       -2.2445033948        0.8637790491
 C          2.5383900565       -1.1500429475        0.3489201794
 C          3.2084500970       -0.0612159402       -0.2935245449
 C          4.6654803836       -0.0436431433       -0.3750536321
 C          5.3017451647        0.0662972075       -1.6364674647
 C          6.6602721132        0.0694422741       -1.7411818608
 C          7.4804218793       -0.0168279149       -0.5937303247
 C          8.8857348439       -0.0057502041       -0.6681718085
 C          9.6466302524       -0.0889364324        0.4665157196
 C          9.0326696521       -0.1877464770        1.7243109788
 C          7.6699633554       -0.2035858384        1.8294445361
 C          6.8568250993       -0.1199786857        0.6782344864
 C          5.4530873322       -0.1371436992        0.7554073383
 C          2.4566588450        1.0123901884       -0.8676124368
 C          3.0834713173        2.1334498117       -1.4158850697
 C          2.3535541295        3.1380569080       -2.0489684626
 C          0.9843387283        3.0294226568       -2.1480146766
 C          0.3294223351        1.9501663656       -1.5577278039
 C          1.0314275421        0.9613776651       -0.8644477850
 C         -1.7981801328       -1.2574847921       -0.6067782869
 C         -3.1739445863       -1.3280231477       -0.5866389590
 C         -3.8762936255       -0.2527750693       -0.0563218684
 C         -6.1587832708       -2.2968423434        0.1579689725
 C         -7.1394020901       -3.2022022483       -0.2023992042
 H         -8.9655829416       -3.5125396660       -1.2755163083
 H         -9.0963564797       -1.1797661840       -2.0680264405
 H         -7.3352651587        0.4333000838       -1.4575375760
 H         -7.5910181448        1.3198896049        0.8229996898
 H         -7.4829381078        3.5795609869        1.7993282978
 H         -5.3365854394        4.7021647663        2.1580949982
 H         -3.2115347657        3.5785893087        1.5725452658
 H         -1.2878485745        1.8204429070        0.7425092705
 H         -0.5710704969       -2.1040849955        1.3586699892
 H          0.7099474448       -3.9616913845        2.3143498634
 H          3.1572670718       -4.0915220561        1.9474582547
 H          4.3042109388       -2.3094519873        0.7204197431
 H          4.6846163504        0.1125334574       -2.5224208458
 H          7.1329164418        0.1335170822       -2.7114662275
 H          9.3540975975        0.0712792669       -1.6394898010
 H         10.7249480746       -0.0783750863        0.4020790232
 H          9.6481601077       -0.2510485607        2.6100756120
 H          7.1923991411       -0.2812298220        2.7960699907
 H          4.9865390304       -0.1916232581        1.7293581991
 H          4.1562909287        2.2299948652       -1.3474625192
 H          2.8705228384        3.9879937688       -2.4690548279
 H          0.4088876702        3.7812875943       -2.6675716749
 H         -0.7438938679        1.8781291682       -1.6449625847
 H         -1.2324791986       -2.0742246551       -1.0308200302
 H         -3.6877852426       -2.1889068808       -0.9875106268
 H         -5.3428267362       -2.5978532072        0.7979348160
 H         -7.0795326625       -4.2219353120        0.1480774712
