66

C      6.763872   -0.188104    1.577191
C      5.566873   -0.270369    0.687349
C      5.062955   -1.681152    0.604542
O      4.498464    0.522876    1.046634
B      3.679124    0.480643   -0.174625
C      2.121793    0.280273   -0.121453
C      1.413187    0.848167    0.901233
C      0.029711    0.668915    0.961101
C     -0.666569   -0.044923    0.051091
C     -2.099675   -0.274929    0.013398
C     -3.039591    0.636072    0.040706
C     -2.863818    2.072530    0.109075
C     -2.999559    2.802837   -1.063834
C     -2.920532    4.187199   -1.096831
C     -2.695637    4.846509    0.093289
C     -2.550307    4.171224    1.291782
C     -2.640939    2.792918    1.255148
C     -4.453737    0.186180    0.102558
C     -5.446128    0.712969   -0.673958
C     -6.777290    0.330690   -0.595725
C     -7.135986   -0.654942    0.331930
C     -6.141647   -1.189245    1.115965
C     -4.819091   -0.803657    1.032588
C     -2.458570   -1.713068   -0.104802
C     -1.801767   -2.653512    0.708435
C     -2.121729   -4.004705    0.582893
C     -3.070851   -4.397747   -0.331331
C     -3.720365   -3.491343   -1.132805
C     -3.398665   -2.159307   -1.002383
C      0.065038   -0.625119   -0.997338
C      1.444721   -0.455365   -1.069652
O      4.564457    0.065410   -1.289452
C      5.838858    0.210131   -0.712171
C      6.865002   -0.615431   -1.426025
C      6.204030    1.670038   -0.776673
H      6.465895   -0.233436    2.645515
H      7.407283   -1.076414    1.299868
H      7.407433    0.677608    1.433291
H      4.371153   -1.888348    1.473444
H      5.881158   -2.428959    0.602452
H      4.423284   -1.753374   -0.303683
H      1.927105    1.438135    1.664834
H     -0.484678    1.113589    1.789352
H     -3.162242    2.328227   -2.032445
H     -3.029394    4.764180   -2.007122
H     -2.642667    5.943187    0.033443
H     -2.374558    4.736291    2.200516
H     -2.534578    2.235801    2.193948
H     -5.243156    1.486178   -1.424415
H     -7.529702    0.788446   -1.244755
H     -8.156648   -0.992325    0.434632
H     -6.438320   -1.948047    1.829725
H     -4.100054   -1.266658    1.687610
H     -1.051972   -2.340397    1.430705
H     -1.618094   -4.761944    1.216124
H     -3.352064   -5.444488   -0.456289
H     -4.468518   -3.814768   -1.850861
H     -3.906758   -1.466503   -1.639743
H     -0.420082   -1.211180   -1.767438
H      1.995520   -0.905776   -1.880187
H      7.791894   -0.618669   -0.797732
H      6.499486   -1.658223   -1.584206
H      7.082821   -0.102618   -2.379143
H      6.526681    1.886588   -1.818585
H      5.362157    2.319394   -0.543787
H      7.075983    1.931839   -0.142918
