32
 xtb: 6.7.1 (edcfbbe)
C           -5.38206309409528        0.57638085861090       -0.00090057055520
C           -4.67902331702768        1.76837846632798       -0.00045583137135
C           -3.27299334400563        1.77406384608590        0.00005866746769
C           -2.62021984824839        0.60644907746586        0.00011601052122
C           -3.32521392938510       -0.59323516411752       -0.00039472531116
C           -4.73060471496745       -0.62024730091150       -0.00089470774148
N           -2.41986371693179       -1.62493486759546       -0.00046259018808
C           -1.18219818678983       -1.15315551066976       -0.00012616404081
C            0.09172376223520       -1.97674674728880       -0.00052782923495
C            1.18392580861159       -1.29202391780031       -0.00051823487901
N            2.52483071364428       -1.76169497853673       -0.00126265516731
C            3.36737760982549       -0.70632323901391       -0.00102540730150
C            4.73022643317407       -0.65872824577702       -0.00160426739410
C            5.35035641255162        0.60174154224980       -0.00129277894901
C            4.56863018241856        1.81192179595022       -0.00031943741823
C            3.23302770382550        1.81815381171867        0.00028999251385
C            2.52105322732084        0.52676079273019       -0.00009684605619
C            1.25221554718591        0.15221923069055        0.00015425658064
C           -0.05159590113397        0.93611109800682        0.00070256599490
C           -1.16502481317657        0.22295698950492        0.00031221199644
H           -6.44968216622993        0.62639272712446       -0.00135539588337
H           -5.17774445345959        2.72109041202402       -0.00031847022181
H           -2.71188307125080        2.72121388872109        0.00062825218955
H           -5.28676531118401       -1.56031880412240       -0.00149301617633
H           -2.71339684304510       -2.65140793523286       -0.00098468217340
H            0.00625134567705       -3.05456204697400       -0.00099923398981
H            2.74685353974180       -2.68424836672999       -0.00159796883901
H            5.30346842782557       -1.56100058240517       -0.00226515466828
H            6.43902792539166        0.64746365945407       -0.00191033071444
H            5.14965909596351        2.73240498037696       -0.00029832842292
H            2.68556959288391        2.72404435963384        0.00088446405468
H           -0.00080428472572        2.01125806681238        0.00121728568244
