  76
 
 O          7.4367606661        3.1342275985        1.2603275971
 C          7.5301617183        2.0423371208        0.6250224155
 C          8.8185158165        1.6759678189        0.0241381436
 C          9.2488596777        0.3478008256       -0.0572827797
 C         10.4834794726        0.0518065929       -0.5988594302
 C         11.3154729629        1.0641010479       -1.0542024423
 C         10.9103376588        2.3858523579       -0.9405780163
 C          9.6812581166        2.6947862310       -0.3975484931
 C          6.3877768928        1.1842672214        0.4736177183
 C          5.2683498902        1.4103652027        1.3127345117
 C          4.1480181088        0.6316536516        1.2201171579
 C          4.0702523430       -0.3886114733        0.2616731810
 N          2.9268253263       -1.1921150226        0.1674096756
 C          2.9135938024       -2.5727915326        0.1259751392
 C          3.9728540159       -3.4670147555        0.1876981147
 C          3.6797243268       -4.8175213636        0.1470822737
 C          2.3670037698       -5.2738612524        0.0547584107
 C          1.3058479627       -4.3882407157        0.0169351622
 C          1.5751655228       -3.0283760910        0.0583339405
 C          0.7476516703       -1.8528818192        0.0600154804
 C         -0.6181598362       -1.6525460923        0.0077065633
 C         -1.1200656774       -0.3507871999        0.0213489399
 C         -2.5608240690       -0.1133357541       -0.0103971236
 C         -3.1322705306        0.9521956094        0.6924209663
 C         -4.4900865827        1.1740960841        0.6747321513
 C         -5.3365834140        0.3385080159       -0.0597931689
 N         -6.7108179316        0.5622203891       -0.0837967999
 C         -7.2117104722        1.8691463980       -0.0425922961
 C         -8.3699855590        2.1576990307        0.6792160445
 C         -8.8636738532        3.4471508860        0.7120772782
 C         -8.2121047516        4.4654411350        0.0349047160
 C         -7.0601926270        4.1837417288       -0.6818249268
 C         -6.5613088060        2.8966589614       -0.7262280561
 C         -7.5997960157       -0.5173484015       -0.1471170971
 C         -8.7674147239       -0.4251512536       -0.9049250080
 C         -9.6457691661       -1.4895791780       -0.9584423214
 C         -9.3742586163       -2.6588736979       -0.2662893188
 C         -8.2145965820       -2.7558195134        0.4858446640
 C         -7.3322518668       -1.6952965677        0.5508625330
 C         -4.7737703803       -0.7261039684       -0.7698678735
 C         -3.4158089397       -0.9459903802       -0.7393500328
 C         -0.2241042403        0.7336920312        0.0591765549
 C          1.1399318647        0.5571221106        0.1021479947
 C          1.6324403079       -0.7446855752        0.1270995787
 C          5.1425734167       -0.5800532105       -0.6192256879
 C          6.2701191942        0.1943922570       -0.5267084184
 H          8.6315895657       -0.4455773325        0.3375639128
 H         10.8062804404       -0.9783516530       -0.6549870211
 H         12.2791660054        0.8240880047       -1.4784957759
 H         11.5604556164        3.1809903665       -1.2767248338
 H          9.3598738452        3.7206789301       -0.3014557750
 H          5.3433044879        2.1937906872        2.0511874121
 H          3.3254583202        0.7744091899        1.9061330618
 H          4.9908804747       -3.1205164081        0.2754221753
 H          4.4859596399       -5.5343295693        0.1916691545
 H          2.1786936484       -6.3365652940        0.0224187486
 H          0.2881203751       -4.7443565770       -0.0377891175
 H         -1.2889127671       -2.4979731361       -0.0140146079
 H         -2.5030421482        1.5922553408        1.2921506703
 H         -4.9133610467        1.9880426790        1.2448553235
 H         -8.8719814449        1.3667579948        1.2168680898
 H         -9.7588631543        3.6596446914        1.2772339459
 H         -8.5998842536        5.4720355589        0.0650764147
 H         -6.5505825748        4.9703720123       -1.2179132216
 H         -5.6711741906        2.6751132131       -1.2964620738
 H         -8.9744054833        0.4818925868       -1.4535938202
 H        -10.5447636026       -1.4079988204       -1.5509580115
 H        -10.0624004409       -3.4888875516       -0.3121247061
 H         -7.9993111166       -3.6610898249        1.0336846886
 H         -6.4356312076       -1.7664913697        1.1488591645
 H         -5.4133832994       -1.3667836462       -1.3591412732
 H         -3.0016412203       -1.7555307123       -1.3212291935
 H         -0.6202293706        1.7370417711        0.0185806019
 H          1.8091698087        1.4035623907        0.1000851874
 H          5.0547376655       -1.3197339879       -1.4023579212
 H          7.0580014435        0.0699249322       -1.2535414705
