55

C     -5.718792    2.019698    2.910942
C     -4.380235    2.372380    2.764487
C     -3.605001    1.788787    1.756524
C     -4.155637    0.842521    0.874288
C     -5.506620    0.497713    1.044288
C     -6.282686    1.080928    2.051125
O     -6.153000   -0.423030    0.252051
C     -5.426466   -1.029429   -0.746804
C     -6.124204   -1.960608   -1.522831
C     -5.479524   -2.624261   -2.563245
C     -4.139716   -2.354810   -2.827557
C     -3.442783   -1.422848   -2.050825
C     -4.073131   -0.744642   -0.992702
N     -3.399202    0.218601   -0.171826
C     -2.028659    0.545856   -0.389318
C     -1.678926    1.658468   -1.156654
C     -0.333036    1.964151   -1.359645
C      0.673259    1.179169   -0.810476
N      1.958738    1.496871   -1.022445
C      2.931544    0.719800   -0.479268
C      4.285308    1.035229   -0.689194
C      4.637369    2.163939   -1.467459
C      5.962182    2.520200   -1.705775
C      6.976015    1.750689   -1.167616
C      6.657680    0.631438   -0.395713
C      5.317385    0.238616   -0.132232
C      4.966799   -0.903055    0.654940
C      5.921109   -1.766805    1.257813
C      5.554754   -2.876215    2.022638
C      4.216392   -3.162961    2.212935
C      3.254643   -2.337447    1.636434
C      3.596819   -1.206738    0.856670
C      2.586027   -0.406080    0.297011
N      1.279872   -0.715779    0.503095
C      0.328719    0.060028   -0.038660
C     -1.011748   -0.243234    0.162965
H     -6.320728    2.472313    3.694501
H     -3.933528    3.101717    3.435935
H     -2.563103    2.086543    1.679414
H     -7.326012    0.798746    2.162876
H     -7.170577   -2.164983   -1.313135
H     -6.020795   -3.348240   -3.166578
H     -3.631616   -2.869011   -3.639820
H     -2.399493   -1.239159   -2.291547
H     -2.452198    2.283750   -1.596517
H     -0.061498    2.830296   -1.957915
H      3.856291    2.787531   -1.903340
H      6.192487    3.394175   -2.308659
H      8.015670    2.014114   -1.343444
H      7.496043    0.065490    0.000667
H      6.987153   -1.591732    1.143192
H      6.318743   -3.509873    2.465341
H      3.913987   -4.022093    2.805254
H      2.205680   -2.585471    1.801825
H     -1.271756   -1.111251    0.763994
