  51
 
 C          5.8979623008       -0.0233991326        0.5540560293
 C          5.4708399870        0.0722552394       -0.7603609858
 C          4.1183302225        0.0907251451       -1.0513090960
 C          3.1921083115        0.0127058267       -0.0187010295
 N          1.7948487343        0.0282293680       -0.2919038877
 C          1.1395274370        1.2417736855       -0.3782778447
 C          1.8580136529        2.4406876411       -0.3949295344
 C          1.2027988005        3.6471789383       -0.5232427424
 C         -0.1782591259        3.6860768295       -0.6410139429
 C         -0.8987112389        2.5072600110       -0.6052782423
 C         -0.2577844872        1.2841328560       -0.4747572904
 C         -1.0480676851        0.0177755636       -0.3096278007
 C         -2.4201640705        0.0613754889       -0.9354352669
 C         -2.7534442118        0.1664618867       -2.2626062989
 C         -4.1025616212        0.1888899504       -2.6119597878
 C         -5.0868651435        0.1062980402       -1.6348819149
 C         -4.7650760496        0.0000128617       -0.2951366522
 C         -3.4163072336       -0.0228375889        0.0619334761
 C         -2.7865877244       -0.1216515861        1.3356224378
 N         -3.2908706189       -0.2248050995        2.5873005733
 C         -2.4355087448       -0.3021617859        3.6015942911
 C         -1.0771625848       -0.2806422700        3.4244473832
 N         -0.5527130725       -0.1768365066        2.1686487193
 C         -1.3907655879       -0.1017194982        1.1773005646
 C         -0.2473719895       -1.2009895526       -0.6691312578
 C         -0.8782815759       -2.3943833380       -0.9878800885
 C         -0.1483494648       -3.5480777073       -1.2026703364
 C          1.2321433725       -3.5171392910       -1.0763499674
 C          1.8775211049       -2.3395756764       -0.7629823845
 C          1.1495178431       -1.1628951000       -0.5646998560
 C          3.6176052585       -0.0827502415        1.2987558833
 C          4.9723454282       -0.1005153116        1.5813841386
 H          6.9542173503       -0.0377386199        0.7770599671
 H          6.1922941729        0.1325663862       -1.5614831712
 H          3.7724089595        0.1647901787       -2.0719854289
 H          2.9332876373        2.4202004358       -0.3037187184
 H          1.7739046132        4.5635140207       -0.5323035050
 H         -0.6905853675        4.6299406777       -0.7446857916
 H         -1.9762538455        2.5287417720       -0.6716143741
 H         -1.9862135165        0.2306525288       -3.0210185741
 H         -4.3834060705        0.2713216567       -3.6510363051
 H         -6.1262914078        0.1258479141       -1.9302779927
 H         -5.5285137874       -0.0641006090        0.4643794521
 H         -2.8611342819       -0.3842452906        4.5900617441
 H         -0.3829016561       -0.3431168448        4.2441701322
 H         -1.9555587252       -2.4137938389       -1.0590237239
 H         -0.6529023961       -4.4687635981       -1.4513787629
 H          1.8105942160       -4.4168845697       -1.2238753421
 H          2.9524142809       -2.3253304525       -0.6665046563
 H          2.8812048863       -0.1422057780        2.0860677053
 H          5.3057710342       -0.1749468953        2.6055378454
