  76
 
 C         -0.0710020562       -6.6270462861       -1.5578873246
 C          1.1366368839       -5.9638535946       -1.4061793455
 C          1.1542258071       -4.6170748538       -1.0999514656
 C         -0.0416689750       -3.9196449283       -0.9415813044
 C         -0.0263311789       -2.4920853187       -0.6133572874
 N         -1.1970169721       -1.8815673171       -0.4672294830
 C         -1.1949432235       -0.5881218356       -0.1595160445
 C         -2.5123548176        0.0420210814        0.0044350771
 C         -2.7029922077        1.4050321392       -0.1929125411
 C         -3.9650071654        1.9702065639       -0.0424821189
 C         -4.1641245751        3.4101305698       -0.2648375964
 C         -5.2852837049        3.8908427273       -0.9392437105
 C         -5.4196523765        5.2569527457       -1.1212653623
 N         -4.5398108716        6.1426088827       -0.6863192169
 C         -3.4760993757        5.6907539703       -0.0446346846
 C         -3.2383553466        4.3472530745        0.1912176414
 C         -5.0366314738        1.1597428544        0.3167473344
 C         -4.8624485879       -0.2064225233        0.5144266510
 C         -6.0015266407       -1.0588835618        0.8851699782
 C         -6.1571551877       -2.3302196822        0.3347427724
 C         -7.2493461666       -3.0918623258        0.7138745032
 N         -8.1618090335       -2.6821481460        1.5786543654
 C         -8.0157876879       -1.4781130093        2.1043340778
 C         -6.9656652748       -0.6297649090        1.7956054632
 C         -3.5976318494       -0.7570251909        0.3502869566
 C          0.0014582778        0.1073889655        0.0107297186
 C          1.1824748811       -0.6095356127       -0.1764513147
 C          2.5135248975       -0.0029417040       -0.0342533457
 C          2.7267942679        1.3545959945       -0.2449708054
 C          3.9983287210        1.8998868234       -0.1023934622
 C          4.2200203148        3.3358557234       -0.3294564877
 C          3.6029344593        4.0068646852       -1.3839999944
 C          3.8476244223        5.3597948443       -1.5488124342
 N          4.6378822744        6.0616605780       -0.7548440292
 C          5.2246128372        5.4289249424        0.2466713392
 C          5.0545806035        4.0790581519        0.5037501640
 C          5.0585195121        1.0735077030        0.2548216880
 C          4.8644029301       -0.2903089052        0.4509608740
 C          5.9936761987       -1.1623068084        0.8055454833
 C          6.1197637484       -2.4365627630        0.2544378895
 C          7.2033968063       -3.2169642263        0.6198083669
 N          8.1342725718       -2.8228752678        1.4721041695
 C          8.0165125093       -1.6160336107        1.9983780083
 C          6.9773585174       -0.7498878717        1.7027033036
 C          3.5885667859       -0.8195483658        0.3022152701
 N          1.1571583137       -1.9029025970       -0.4834711838
 C         -1.2524079058       -4.5915391218       -1.0976400860
 C         -1.2640032203       -5.9383350391       -1.4040479679
 H         -0.0824100616       -7.6803112355       -1.7972759290
 H          2.0656360789       -6.5015201157       -1.5280309250
 H          2.0850793414       -4.0851315152       -0.9817627161
 H         -1.8811973691        2.0297432114       -0.5098370117
 H         -6.0257683285        3.2100697927       -1.3306958134
 H         -6.2748337724        5.6665763742       -1.6430267467
 H         -2.7812895347        6.4468902702        0.2975361587
 H         -2.3616426517        4.0342276027        0.7378557868
 H         -6.0169058758        1.5969791020        0.4381541451
 H         -5.4496592374       -2.7056145977       -0.3884233771
 H         -7.4059289516       -4.0818415951        0.3053058250
 H         -8.7813444105       -1.1809407754        2.8094395233
 H         -6.8863408320        0.3375211949        2.2681790584
 H         -3.4299973000       -1.8104108693        0.5112090898
 H          0.0133730745        1.1405547920        0.3145416779
 H          1.9061463996        1.9980604140       -0.5250325525
 H          2.9626891685        3.4779813211       -2.0736885547
 H          3.3889992565        5.9130722786       -2.3581798481
 H          5.8620698239        6.0384342886        0.8740252860
 H          5.5445652969        3.6159655443        1.3466581814
 H          6.0527669579        1.4884953195        0.3336688869
 H          5.3963262083       -2.8000119020       -0.4589510243
 H          7.3371075564       -4.2098361012        0.2101598023
 H          8.7965070775       -1.3318971354        2.6929751309
 H          6.9215609562        0.2188168477        2.1756078176
 H          3.4047468810       -1.8694583740        0.4680641834
 H         -2.1714915952       -4.0398362802       -0.9778927629
 H         -2.2044358234       -6.4560835022       -1.5244647909
