  94
 
 N          0.0001006298        3.1094647836        2.4146378651
 C          0.0000829722        2.2581780869        1.6463835629
 C          0.0000410531        1.1616912839        0.7538074407
 C         -1.2285617202        0.5904398719        0.3815659079
 N         -2.4221930647        1.1762636357        0.7918338745
 C         -3.4601831407        0.5195396009        1.4382282172
 C         -3.4760053803       -0.7410932164        2.0114421879
 C         -4.6434718063       -1.1535592157        2.6270748899
 C         -5.7600042363       -0.3251707887        2.6892382651
 C         -5.7283982094        0.9530664686        2.1653896513
 C         -4.5666456634        1.3874831628        1.5423043380
 C         -4.1728556709        2.6317438131        0.9374623351
 C         -4.8273806437        3.8378498924        0.7284049498
 C         -4.1521027416        4.8547602361        0.0818147841
 C         -2.8466786501        4.6758346069       -0.3659404457
 C         -2.1776167979        3.4815346606       -0.1708471151
 C         -2.8427725196        2.4672068583        0.4972122699
 C         -1.2286040551       -0.5903126643       -0.3817181696
 N         -2.4222771257       -1.1760591917       -0.7919749942
 C         -2.8429376090       -2.4669730674       -0.4973331952
 C         -2.1778206907       -3.4813557737        0.1706806889
 C         -2.8469593493       -4.6756082257        0.3658025773
 C         -4.1524216309       -4.8544346284       -0.0818795745
 C         -4.8276612506       -3.8374681096       -0.7284212265
 C         -4.1730590757       -2.6314087246       -0.9375047998
 C         -4.5667951692       -1.3871132236       -1.5423096175
 C         -5.7285602914       -0.9526030845       -2.1653061005
 C         -5.7601078303        0.3256419192       -2.6891389383
 C         -4.6435054943        1.1539418341       -2.6270537889
 C         -3.4760257686        0.7413813122       -2.0115094512
 C         -3.4602604265       -0.5192541883       -1.4383004932
 C         -0.0000402462       -1.1616521013       -0.7539530569
 C         -0.0000735287       -2.2581254985       -1.6465417824
 N         -0.0000690662       -3.1094013872       -2.4148120869
 C          1.2285635399       -0.5904085580       -0.3816977792
 N          2.4221985757       -1.1762499463       -0.7919308926
 C          3.4602279628       -0.5195411543       -1.4382794772
 C          3.4760919394        0.7410856499       -2.0115054256
 C          4.6435946693        1.1535353915       -2.6270803757
 C          5.7601233528        0.3251368068       -2.6891766697
 C          5.7284787106       -0.9530945690       -2.1653162108
 C          4.5666895289       -1.3874943918       -1.5422873487
 C          4.1728607788       -2.6317439509       -0.9374478821
 C          4.8273683011       -3.8378501796       -0.7283367978
 C          4.1520531875       -4.8547449208       -0.0817608810
 C          2.8466086871       -4.6758032859        0.3659278749
 C          2.1775641038       -3.4815027620        0.1707797528
 C          2.8427572516       -2.4671907460       -0.4972661344
 C          1.2286034798        0.5903446253        0.3815841033
 N          2.4222775599        1.1760702102        0.7918724899
 C          3.4601959087        0.5192567129        1.4382915856
 C          3.4758892159       -0.7413708852        2.0115203382
 C          4.6433049081       -1.1539394740        2.6271800158
 C          5.7599139712       -0.3256549541        2.6893536228
 C          5.7284370008        0.9525797960        2.1654909458
 C          4.5667367835        1.3870988185        1.5423790907
 C          4.1730713875        2.6313909783        0.9375208894
 C          4.8277091165        3.8374367969        0.7284693424
 C          4.1525342529        4.8544055914        0.0818634532
 C          2.8471006220        4.6755973570       -0.3659108161
 C          2.1779266726        3.4813592416       -0.1708230934
 C          2.8429805155        2.4669726631        0.4972486603
 H         -2.6071390673       -1.3816740318        1.9946576665
 H         -4.6838416164       -2.1367981125        3.0709944088
 H         -6.6558516610       -0.6842365018        3.1727147451
 H         -6.5834455835        1.6064044195        2.2434906103
 H         -5.8447758276        3.9710714506        1.0618761365
 H         -4.6417680014        5.8018272653       -0.0868379994
 H         -2.3441076304        5.4824181027       -0.8782794617
 H         -1.1692336248        3.3536831155       -0.5364129267
 H         -1.1694072118       -3.3535843033        0.5361886355
 H         -2.3444163030       -5.4822329888        0.8781039929
 H         -4.6421469400       -5.8014672748        0.0867927769
 H         -5.8450861664       -3.9706105275       -1.0618337419
 H         -6.5836629801       -1.6058754841       -2.2433500767
 H         -6.6559649239        0.6847826429       -3.1725421499
 H         -4.6838320662        2.1371863252       -3.0709649866
 H         -2.6071079645        1.3818937471       -1.9947868946
 H          2.6072306997        1.3816749269       -1.9947726939
 H          4.6839973144        2.1367695344       -3.0710075043
 H          6.6559993742        0.6841898535       -3.1726094040
 H          6.5835245782       -1.6064407149       -2.2433640724
 H          5.8447796109       -3.9710834194       -1.0617541935
 H          4.6417048549       -5.8018115417        0.0869334134
 H          2.3440077058       -5.4823736196        0.8782580615
 H          1.1691651028       -3.3536375897        0.5362960327
 H          2.6069620547       -1.3818688593        1.9947269115
 H          4.6835738454       -2.1371759200        3.0711141897
 H          6.6557188848       -0.6847990139        3.1728505788
 H          6.5835437718        1.6058385246        2.2436026316
 H          5.8451106293        3.9705675398        1.0619573869
 H          4.6422883364        5.8014272776       -0.0867854849
 H          2.3446094865        5.4822259668       -0.8782570122
 H          1.1695355327        3.3535994112       -0.5363989259
