85
 xtb: 6.7.1 (edcfbbe)
C           -7.27239583544224       -4.96797965060874        0.67198932957110
C           -6.56614998549102       -3.66174564844293        0.47790205933831
C           -7.07919583388213       -2.71380622250610       -0.40410310330904
C           -6.44834966466212       -1.50478238564646       -0.60158333549856
C           -5.27515572037092       -1.20165177525047        0.09515016977326
N           -4.60671097345492        0.00743516617403       -0.08796798313683
C           -5.29441725322321        1.18136390795005       -0.38855757669372
C           -6.58505535907679        1.41972840914914        0.08989480990946
C           -7.23244803028901        2.59831504773256       -0.21609299553181
C           -6.62102122242422        3.57767328098563       -0.99232711485063
C           -7.34313663110399        4.84326448243048       -1.33724718705603
C           -5.33280911057896        3.33830473187335       -1.45791061285320
C           -4.67554872447440        2.16164630171177       -1.16682758870408
C           -3.21254933709508        0.04286528319351        0.03529801745829
C           -2.41501612102456       -0.83854338539583       -0.76266288715197
C           -2.96990900201940       -1.67254028348537       -1.73539368604438
C           -2.18271187108899       -2.55219555296494       -2.47187935839645
C           -0.82456961001562       -2.61594398044745       -2.24442793816528
C           -0.23828261718371       -1.75451906361756       -1.32386724669657
C           -0.99828116508846       -0.82818440300848       -0.60268862431401
C           -0.39151603975921        0.10850601265194        0.28856691729816
C            1.06580413221920        0.14095575474244        0.41990807530324
C            1.87615544893847        0.39714464503848       -0.69070250750073
C            3.24996641290421        0.43102541369964       -0.57362744547123
C            3.84763474443366        0.19466588653777        0.65939430028616
P            5.64677035348205        0.17554300189951        0.91744228932586
O            6.04400104902472        0.45158954514503        2.30302348557187
C            6.31883584782940        1.37683282664759       -0.27895459333854
C            6.55590011429657        1.07609496011010       -1.61329215490833
C            7.05209969403347        2.05314985372607       -2.45788582075669
C            7.31220876697833        3.32551921478087       -1.97428865684706
C            7.08267034831023        3.62390255468516       -0.64087324364506
C            6.58639154652728        2.64936095489567        0.20567635294407
C            6.21811591998053       -1.44896455812849        0.31508501993434
C            7.40557699143944       -1.92110938870099        0.85692712948560
C            7.92258130449419       -3.13533015077589        0.44371983187913
C            7.25042290209948       -3.88049879084157       -0.51172418903718
C            6.06051157578514       -3.41438565111087       -1.04725364563900
C            5.54149501956698       -2.19921551443626       -0.63656229273336
C            3.05326327387742       -0.05571771521575        1.77181785065753
C            1.67934494583683       -0.07756111470112        1.65707292609465
C           -1.18959634994378        1.01292021004692        1.05345050304001
C           -0.61264939946579        1.96901783963814        1.89541384505864
C           -1.39247785346072        2.79866259180879        2.69328204677207
C           -2.76522370076574        2.67296601265736        2.67445666945560
C           -3.36786564471770        1.76208458923174        1.81243853798740
C           -2.61114630228140        0.95789007262880        0.95806316536138
C           -4.75461491998477       -2.14961304380262        0.97694159109239
C           -5.39392609356259       -3.35905419477730        1.15866420550824
H           -8.22006736322920       -4.80631569380476        1.19697394551294
H           -6.66521265379873       -5.65047455440493        1.27152142786947
H           -7.49402058198428       -5.43658939954072       -0.28228463058454
H           -7.98228163836399       -2.93690169635815       -0.95555121970984
H           -6.84622745121181       -0.79554717392743       -1.31298161406874
H           -7.06603084325979        0.68562951285071        0.72006449435855
H           -8.22982846529832        2.76704266798009        0.16502661872760
H           -6.63893237674429        5.68502322974651       -1.37170299476546
H           -7.80469766123317        4.75839541333250       -2.32074361145511
H           -8.11674830176680        5.06409481012864       -0.60779872120947
H           -4.83924263828960        4.08430059083590       -2.06311351513489
H           -3.67831159087820        1.98429926435658       -1.54137108916993
H           -4.03115154332394       -1.64689544432932       -1.92675400332663
H           -2.64826850051419       -3.19321685151456       -3.20557718814185
H           -0.20976356977617       -3.32202137325512       -2.78246702772720
H            0.82755842737141       -1.80342140008025       -1.16274049746747
H            1.41004223000176        0.59554705367616       -1.64572854613776
H            3.86129718294830        0.65624840646616       -1.43637852811927
H            6.36527418078033        0.07838355079352       -1.98506797415445
H            7.23929318216574        1.82076518430834       -3.49712386275638
H            7.70019252303127        4.08349205497748       -2.63943691346944
H            7.29208479043601        4.61425880791413       -0.26489999919977
H            6.40902789315208        2.85209365891674        1.25164364911535
H            7.90332894299201       -1.32559969604605        1.60939976442614
H            8.84658213483403       -3.50217811045287        0.86583876479702
H            7.65057095835862       -4.82983107672101       -0.83538147791168
H            5.53386669378264       -4.00170474334428       -1.78542147687813
H            4.60778501097550       -1.83870695959555       -1.04540186405065
H            3.53626500900141       -0.22483105061758        2.72360457056902
H            1.06424382984371       -0.28753440273013        2.52054021499037
H            0.46095265454087        2.06594751760859        1.92995957899039
H           -0.91639165648677        3.52791976161328        3.33102600837678
H           -3.38357691304183        3.28824550842935        3.31132382296085
H           -4.44440821081471        1.68723829559848        1.81148997066382
H           -3.85009408416639       -1.92308942558303        1.52068274764587
H           -4.97556304987634       -4.07931674701636        1.84625150644183
