85
 xtb: 6.7.1 (edcfbbe)
C           -6.91098371562999       -5.00930560156179        0.27027358417941
C           -6.22284688363377       -3.68113089725356        0.17337734272232
C           -6.71031346831186       -2.65897173926156       -0.62808723515345
C           -6.06091085008996       -1.44220306600714       -0.71241044495580
C           -4.90006027547696       -1.21046255471441        0.02361415206887
N           -4.21728156674832        0.00421374949313       -0.04984803636526
C           -4.87171058136839        1.21647613228963       -0.27281672549359
C           -6.16782136650331        1.44372497270147        0.19068025008364
C           -6.78553869890467        2.65735983215535       -0.03382993149398
C           -6.13670030949588        3.68331408424383       -0.71021669380381
C           -6.80308105503299        5.00819180555119       -0.92634250582403
C           -4.84094868134219        3.45600198590428       -1.15750576311320
C           -4.21475943655100        2.24404745184659       -0.94960414866589
C           -2.81560002134486        0.00876652533757        0.10772667284300
C           -2.01161449190360       -0.72103791073198       -0.78637648711906
C           -2.55803420224636       -1.42868522127538       -1.88743392078859
C           -1.76253047922327       -2.12193914172930       -2.74748983280095
C           -0.36709123829970       -2.14795328595507       -2.56173757147292
C            0.19896716619931       -1.46109378066921       -1.53255864222102
C           -0.59273750455299       -0.72230358106715       -0.61444067284163
C           -0.01179750983262        0.02822714141701        0.41699808335300
C            1.45835760402244        0.04405042867980        0.57541691492843
C            2.18977134117976        1.17843156600370        0.23619919115336
C            3.56548640480179        1.19675995506061        0.37683722162537
C            4.22395673985923        0.07616010838670        0.85866237848980
P            6.01965875926004        0.02759905798455        1.16940834644420
O            6.35938577301628        0.03348844352453        2.59815915851437
C            6.74166448461882        1.42318320174840        0.25190914377187
C            6.61501918734298        1.55877083807586       -1.12485087679717
C            7.19934486742149        2.63709239706926       -1.76259215288348
C            7.91102234977982        3.57636376521388       -1.03143250523522
C            8.04131805093695        3.43874414140506        0.34060616033915
C            7.45717629264508        2.36067979495823        0.98200194968768
C            6.60116226153065       -1.46070877113609        0.29402358557298
C            7.70390119439030       -2.10880384421644        0.83180846975954
C            8.21998711169308       -3.23156839861977        0.21031158031361
C            7.63256758678486       -3.70619726137563       -0.95115922552898
C            6.52809095578159       -3.06256146605567       -1.48686016615678
C            6.01070329543643       -1.93921839111231       -0.86784405827974
C            3.49943920000503       -1.05459807302287        1.21429015311418
C            2.12684734916936       -1.07411809147838        1.06925171658442
C           -0.81378290609920        0.76602378009604        1.29877843732105
C           -0.25062605524968        1.51010367357098        2.36865871012942
C           -1.03742827281782        2.18588072775406        3.24955748713546
C           -2.43922146378775        2.14246483055527        3.12514755170202
C           -3.01890741793334        1.44207623719635        2.11187765395972
C           -2.23568473238806        0.74519847175553        1.15666624117026
C           -4.40307688784591       -2.23686228059109        0.82909228027740
C           -5.05555081957779       -3.44915990794224        0.89497682929487
H           -7.90994053599809       -4.95619229854513       -0.19695046041357
H           -7.01697414158515       -5.32437740871057        1.30877191962918
H           -6.32492116662122       -5.77372958607862       -0.26794118260059
H           -7.60822842858879       -2.81825901395524       -1.20409886988917
H           -6.44542596501572       -0.67146445012509       -1.36162095559062
H           -6.68337276322634        0.66781305332683        0.73855580391911
H           -7.79079263226084        2.81201715034736        0.33257770272800
H           -6.48836922799131        5.44949350956391       -1.87061575898235
H           -7.88691245619090        4.90104150379012       -0.93381411015201
H           -6.53632132922714        5.69675687979400       -0.12720203173963
H           -4.31673186133805        4.23833803922992       -1.68697859178498
H           -3.21058155018600        2.08258172670213       -1.31338349829661
H           -3.62417633327064       -1.40482716132577       -2.04741494482921
H           -2.19646375954820       -2.65123905139828       -3.58271018017828
H            0.24960389606678       -2.70643710056982       -3.25094732460847
H            1.27112617575693       -1.46300459527984       -1.40069447645273
H            1.67150482948771        2.04825889229825       -0.14211317296075
H            4.12976137047520        2.08080696272180        0.11215670745967
H            6.06184780949740        0.82312488629190       -1.68965551182274
H            7.10277542900249        2.74760636392564       -2.83242683843698
H            8.36682620636417        4.41646320344508       -1.53461807860528
H            8.59806132886944        4.17013818140324        0.90889702809863
H            7.54318112978778        2.22591367953716        2.05131021887744
H            8.13445815952194       -1.72455350485218        1.74593457073663
H            9.07681684518981       -3.73817498732099        0.63036224013065
H            8.03207162137985       -4.58368447596608       -1.43825699130328
H            6.06818808624641       -3.44030124357733       -2.38841218043583
H            5.14043527496316       -1.44366940075421       -1.27501794881099
H            4.02870394189884       -1.91353540351314        1.60586629054926
H            1.55965857370280       -1.95215638801325        1.34215923241223
H            0.82378060324842        1.52385324684880        2.47721944182037
H           -0.59318658020381        2.74821543074252        4.05752237544462
H           -3.05220172759109        2.66353586218894        3.84527133680096
H           -4.09392380594427        1.40344913339659        2.03528561499847
H           -3.50326809297635       -2.06968483177180        1.40634459852612
H           -4.65827362593557       -4.22948477829569        1.53242540574040
