80
 xtb: 6.7.1 (edcfbbe)
C            8.08497590810919       -1.62508547410785        1.68902673134923
C            6.81901307723869       -1.70322509717876        2.24593971796289
C            5.72969630025745       -1.16783385235657        1.58699122026320
C            5.89195392590647       -0.54847861135475        0.34755649990895
N            4.78982645429643       -0.00876846555883       -0.32479039423523
C            4.92162957982100        1.17333220354675       -1.06001782171229
C            4.21176195238438        1.34967433461931       -2.24794822030275
C            4.34048629381666        2.52047772124529       -2.96915100263127
C            5.18097817931575        3.52905733249579       -2.52725450806990
C            5.89017177297350        3.35842318873895       -1.34952734671212
C            5.76129329933188        2.19507205296851       -0.61625802300392
C            3.54827922820317       -0.65413227335164       -0.25911478503053
C            3.48588854147810       -2.05132311592596       -0.29761838827825
C            2.28034278037681       -2.72557955888744       -0.23430732733563
C            1.11620405718314       -1.98646762657195       -0.14394652385580
C            1.16127267118187       -0.55637408586071       -0.10815620278863
C            2.37705935223010        0.09665708704789       -0.15935762278068
C           -0.20740975616025       -0.07582025096584       -0.00569785920991
C           -0.96918780950200        1.07982905516476        0.07158983200278
C           -2.36809408627244        0.94843671206728        0.17532515295320
N           -3.12819822782236        2.12968387341397        0.27683204637359
C           -4.31874054600000        2.26076960239625       -0.43945332596584
C           -5.39655267070394        2.97357543229558        0.09040575995338
C           -6.57249500709760        3.09291520304665       -0.62410688020064
C           -6.70178657062279        2.50088516324258       -1.87004613756041
C           -5.63750945602924        1.78795389499217       -2.39912178538760
C           -4.45419351382530        1.67004731503351       -1.69687121743830
C           -2.67908991797182        3.15754217539214        1.11270379102300
C           -2.85383873821283        4.49508861854958        0.75449855467673
C           -2.40498667591215        5.50300282958617        1.58569875464030
C           -1.76730633499923        5.19895827633214        2.77815403159201
C           -1.58335284398354        3.87239228803974        3.13477739557231
C           -2.03657064077010        2.85695027004986        2.31510774757529
C           -3.05269419575737       -0.27902574082332        0.19179983798770
C           -2.32003398695831       -1.45908378370411        0.08891399390505
C           -2.42654270741646       -2.90620869613292        0.05212544758032
C           -3.53069546447173       -3.78626644545467        0.08964692659480
C           -4.86559876756000       -3.34529653605797        0.17055852542205
C           -5.89849249167908       -4.24162895003158        0.20393091010932
C           -5.64443551360657       -5.61939838841350        0.15858072061523
C           -4.35856474499936       -6.07798372197806        0.07705187245577
C           -3.26965217670482       -5.18428471130835        0.03861961698740
C           -1.93976139275975       -5.65872873956437       -0.05084203085439
C           -0.87043772004250       -4.80815546544327       -0.09463375704647
C           -1.11315176835325       -3.43258741994993       -0.04420758703949
N           -0.21175480416563       -2.38471646519436       -0.07313813921691
C           -0.94935064460543       -1.24763087294797        0.00577723644732
C            7.16800251128945       -0.47844017624160       -0.21156867843518
C            8.25224687188089       -1.00925997797715        0.45939092313475
H            8.93680814615530       -2.06767044963046        2.19690733194684
H            6.68253585721224       -2.20124351548524        3.19723265819154
H            4.74978532094568       -1.23441560342922        2.02616692415523
H            3.56494882342349        0.56943249446853       -2.59416989555006
H            3.79140629411056        2.65466787147715       -3.87330261439011
H            5.29353798684678        4.44627324642136       -3.07641755651557
H            6.55766855966340        4.13508823305922       -0.97737589107378
H            6.31856401509293        2.05917941243117        0.31534476709360
H            4.40578603991108       -2.61416550930605       -0.38962739290770
H            2.25600583626527       -3.80403891414783       -0.27569176043120
H            2.42963998623556        1.17341054878231       -0.11211503185735
H           -0.52441759806749        2.06871207149513        0.07199330492755
H           -5.32309055307121        3.37321388161720        1.09929102392163
H           -7.42536936554714        3.56803525799305       -0.15620871876920
H           -7.64060465803164        2.53861269411417       -2.39135993094843
H           -5.72436085045121        1.31799067051117       -3.36173317413576
H           -3.61352185279287        1.13833861063938       -2.11821396937634
H           -3.38353603340877        4.72759968585076       -0.19292855824381
H           -2.60284108666652        6.55243852497532        1.25552607184408
H           -1.43752501999386        6.04773260275339        3.37422582278520
H           -1.06562151570603        3.69598157682923        4.03203127234303
H           -1.86178256533128        1.86823550751209        2.59577220926009
H           -4.12274568621221       -0.25712777970344        0.29653718485713
H           -5.06103014588736       -2.27764196657727        0.20594954428632
H           -6.91930225149598       -3.88085431378392        0.25743297790040
H           -6.47547236159028       -6.30361527820066        0.16490188719798
H           -4.16314752729613       -7.13172305460951        0.01384506979761
H           -1.78552057581316       -6.72212863501616       -0.10897970395297
H            0.13712655206634       -5.17941023087186       -0.17913973637198
H            7.30361025962727       -0.01566647967981       -1.17603373135391
H            9.23684596499963       -0.96729021995450        0.00619739339624
