  94
 
 C          6.2834131311        0.2485006465       -0.4168432551
 C          5.6750362559       -1.0479589585        0.1521319957
 C          6.7864543646       -1.9693406870        0.6911605993
 C          4.9413983610       -1.7585109505       -0.9665369047
 C          5.6490320058       -2.1597632583       -2.0925483456
 C          5.0330835686       -2.7654788694       -3.1714866959
 C          3.6623908140       -2.9592353968       -3.1450401382
 C          2.9367787228       -2.5741816259       -2.0386143101
 C          3.5605257721       -1.9945045479       -0.9268858953
 N          2.8114423068       -1.6634421015        0.1939551349
 C          1.3981595522       -1.6933985517        0.1242352464
 C          0.6932096018       -2.8982694396        0.0654988940
 C         -0.6794483849       -2.9016931653       -0.0607231267
 C         -1.3902726512       -1.7003603671       -0.1210318059
 N         -2.8036979927       -1.6774512135       -0.1904498370
 C         -3.5508467243       -2.0104259574        0.9311072741
 C         -2.9240056047       -2.5855188233        2.0434726240
 C         -3.6474399809       -2.9723867727        3.1506889849
 C         -5.0190028658       -2.7849440690        3.1773503186
 C         -5.6381603036       -2.1837453388        2.0977230460
 C         -4.9328090043       -1.7808820615        0.9708570285
 C         -5.6702232515       -1.0757106623       -0.1487460893
 C         -6.7772490287       -2.0034532161       -0.6859385727
 C         -6.2850655315        0.2185647870        0.4182469342
 C         -4.7457876240       -0.7187550953       -1.2930658066
 C         -5.2569173086       -0.0697297744       -2.4094241873
 C         -4.4693658797        0.2412156337       -3.5024272774
 C         -3.1345721803       -0.1299573353       -3.5041914133
 C         -2.6026773534       -0.7729731064       -2.4085172289
 C         -3.3839217920       -1.0456382688       -1.2776386206
 C         -0.7133432400       -0.4679222448       -0.0622465208
 N         -1.3630259865        0.6945249594       -0.0892244627
 C         -0.7065466158        1.8571933680       -0.0132032758
 C         -1.5352091425        3.0603228378        0.0600133451
 C         -2.7009732698        3.1239555313       -0.7046369860
 C         -3.5202264358        4.2343531652       -0.6404232046
 C         -3.1959168171        5.2919433333        0.1946925966
 C         -2.0528111478        5.2252510013        0.9766469312
 C         -1.2284019893        4.1181878353        0.9159059335
 C          0.6971046208        1.8606355425        0.0117514310
 C          1.5199859941        3.0676414826       -0.0628582664
 C          1.2080852874        4.1231516201       -0.9198217336
 C          2.0273871085        5.2339210842       -0.9819797297
 C          3.1703798031        5.3067322533       -0.2004065203
 C          3.4997082558        4.2516082638        0.6358633299
 C          2.6855750972        3.1375387594        0.7015224690
 N          1.3592309176        0.7012576081        0.0891419027
 C          0.7152106051       -0.4643651182        0.0636751253
 C          3.3882778288       -1.0270898520        1.2803123989
 C          2.6054109994       -0.7562498165        2.4105060907
 C          3.1339027632       -0.1088825863        3.5052661734
 C          4.4669254920        0.2685766073        3.5033329730
 C          5.2562806068       -0.0404674922        2.4110922987
 C          4.7485729656       -0.6937037406        1.2956341705
 H          5.4927301259        0.8868049762       -0.8075782916
 H          6.9772059477        0.0283505578       -1.2230785453
 H          6.8178316848        0.7956910177        0.3542195786
 H          7.4843227106       -2.2355429073       -0.0971127146
 H          6.3493180136       -2.8839882031        1.0879599897
 H          7.3413027817       -1.4806480702        1.4865933704
 H          6.7137465612       -1.9906470948       -2.1366079446
 H          5.6140717229       -3.0679911607       -4.0293581545
 H          3.1547754448       -3.4074751730       -3.9863133205
 H          1.8676829502       -2.7150572456       -2.0356275223
 H          1.2397977764       -3.8274360630        0.1229856591
 H         -1.2215509477       -3.8335693016       -0.1169234929
 H         -1.8542657691       -2.7214066561        2.0403333376
 H         -3.1374445544       -3.4170428399        3.9924202763
 H         -5.5982723967       -3.0888682383        4.0358854052
 H         -6.7036414588       -2.0195693137        2.1419160658
 H         -7.4739041609       -2.2712551667        0.1028665949
 H         -7.3343386430       -1.5190349258       -1.4824127285
 H         -6.3358722391       -2.9168824239       -1.0808232680
 H         -6.8224926135        0.7617033290       -0.3535895496
 H         -5.4976598318        0.8616362494        0.8077542089
 H         -6.9775309384       -0.0038238706        1.2250104111
 H         -6.3003213591        0.2045349658       -2.4323343902
 H         -4.8956315620        0.7553465854       -4.3504776458
 H         -2.5080112724        0.0787208162       -4.3589761780
 H         -1.5664144768       -1.0751998331       -2.4219984526
 H         -2.9455907140        2.2919671485       -1.3488487412
 H         -4.4157359735        4.2740509645       -1.2436123074
 H         -3.8348879493        6.1613287339        0.2434389175
 H         -1.8050464551        6.0387941804        1.6430691627
 H         -0.3481882723        4.0639578504        1.5404229969
 H          0.3279981871        4.0641946144       -1.5440965342
 H          1.7757490850        6.0455708726       -1.6492553679
 H          3.8053564362        6.1789758807       -0.2502958727
 H          4.3951271512        4.2961045996        1.2388559132
 H          2.9341388673        2.3074222528        1.3466498942
 H          1.5705450343       -1.0632045370        2.4242162487
 H          2.5060657762        0.0982744762        4.3594838850
 H          4.8904937990        0.7860955940        4.3506732315
 H          6.2983767789        0.2387172671        2.4338566091
