  93
 
 C         -9.0726405304        3.3391509570       -1.3172903103
 C         -7.9559443966        2.3873224326       -1.0065622922
 C         -7.6981835308        1.2985351502       -1.8303913284
 C         -6.6828316891        0.4001428613       -1.5502505577
 C         -6.4411651764       -0.7387444446       -2.4979687424
 C         -5.8707349019        0.5632053149       -0.4105729535
 B         -4.6982060219       -0.4412358742       -0.0969846817
 C         -3.2681195480        0.1104833172        0.0907517616
 C         -2.8836342370        1.3753608290       -0.4062025064
 C         -1.6146812339        1.8729579182       -0.2438908420
 C         -0.6460072965        1.1247411104        0.4360851936
 N          0.6512317048        1.6238092390        0.6011433819
 C          0.9799932331        2.8877619588        1.0642921030
 C          0.1537896367        3.9081159084        1.5034007923
 C          0.7480966756        5.0821999528        1.9408355810
 C          2.1336660678        5.2353271963        1.9437060175
 C          2.9662107309        4.2140049885        1.5313112213
 C          2.3925944845        3.0207854357        1.0973232032
 C          2.9273859402        1.7806394332        0.6351943965
 C          4.2193410535        1.3114262674        0.4343854937
 C          4.3876817613        0.0264504954       -0.0628192936
 N          5.6916695229       -0.4748836154       -0.2714909932
 C          6.1191116748       -1.6065802634        0.3991857646
 C          5.3345218866       -2.2643043622        1.3521431570
 C          5.7993374638       -3.3904233992        1.9937510383
 C          7.0754404117       -3.8930800688        1.7150046763
 C          7.8874086693       -3.2369205375        0.8137097960
 C          7.4327975375       -2.0974656598        0.1614604103
 O          8.2933771671       -1.4664412009       -0.6788086305
 C          7.8678469580       -0.3473260859       -1.3202444063
 C          8.7595337215        0.2808037057       -2.1808098385
 C          8.3697393084        1.3942582707       -2.8951323123
 C          7.0601422129        1.8731412928       -2.7740417758
 C          6.1673877763        1.2636959504       -1.9214074806
 C          6.5509960619        0.1629113555       -1.1481436742
 C          3.2835694126       -0.7830432753       -0.3806413036
 C          1.9922268087       -0.3272425453       -0.1927137670
 C          1.8111710392        0.9430182098        0.3362367546
 C         -0.9953680077       -0.1334555366        0.9420824052
 C         -2.2675064564       -0.6193012253        0.7690602398
 C         -4.9427446082       -1.9931595376        0.0266860614
 C         -4.2181745379       -2.9160402355       -0.7460869235
 C         -3.1993970529       -2.4762186455       -1.7613114197
 C         -4.4394861320       -4.2802609727       -0.6137303063
 C         -5.3697912538       -4.7831416556        0.2812279489
 C         -5.6127289589       -6.2571999693        0.4143474558
 C         -6.0909933942       -3.8740873091        1.0461695624
 C         -5.8922189527       -2.5091484522        0.9309982218
 C         -6.6876057687       -1.5848692439        1.8066103874
 C         -6.1379376937        1.6638231871        0.4215685358
 C         -5.3504834893        1.9181890672        1.6774376091
 C         -7.1638352790        2.5484375328        0.1193543613
 H         -9.1569153809        3.4994958286       -2.3908317925
 H         -8.9138087602        4.2978548625       -0.8279501209
 H        -10.0214182702        2.9308828666       -0.9644909081
 H         -8.3058135951        1.1537609826       -2.7147821668
 H         -5.4443067395       -0.6675700523       -2.9304500837
 H         -7.1705494189       -0.7318180176       -3.3054913079
 H         -6.5050822018       -1.6908745420       -1.9748666785
 H         -3.6128158750        1.9596474616       -0.9505303800
 H         -1.3421345431        2.8308751543       -0.6650020810
 H         -0.9194135888        3.7943403749        1.5150913005
 H          0.1240331942        5.8922264228        2.2882010255
 H          2.5591533795        6.1677944032        2.2855005970
 H          4.0393748054        4.3312482382        1.5486247043
 H          5.0748536778        1.9216504683        0.6799985511
 H          4.3563482048       -1.8764927315        1.5867352178
 H          5.1753464520       -3.8835772816        2.7221718228
 H          7.4304528708       -4.7792697646        2.2157094257
 H          8.8863423051       -3.5818333453        0.5976900456
 H          9.7520423928       -0.1312220452       -2.2736527066
 H          9.0658675781        1.8812450983       -3.5586758398
 H          6.7427262608        2.7225955507       -3.3577901511
 H          5.1562410313        1.6312284884       -1.8499501940
 H          3.4553519866       -1.7596496850       -0.8059485627
 H          1.1493980709       -0.9394055746       -0.4729404801
 H         -0.2613655778       -0.7015322865        1.4969156205
 H         -2.5237520853       -1.5852004617        1.1821086380
 H         -3.3218134668       -3.0391152715       -2.6863257898
 H         -2.1920370300       -2.6633940317       -1.3878340141
 H         -3.2878430619       -1.4155586387       -1.9753345342
 H         -3.8697776962       -4.9661406359       -1.2281297430
 H         -4.8142297411       -6.8273830178       -0.0554489270
 H         -5.6802387251       -6.5430590319        1.4631683058
 H         -6.5548104981       -6.5275341017       -0.0653377809
 H         -6.8236639865       -4.2464379331        1.7510354550
 H         -7.3891194646       -2.1435952734        2.4229831072
 H         -6.0264724310       -1.0181974176        2.4605961521
 H         -7.2430711194       -0.8703923885        1.2021893063
 H         -4.7764813765        1.0435130947        1.9677932118
 H         -6.0186409745        2.1943304361        2.4927546189
 H         -4.6538684427        2.7431183075        1.5234745568
 H         -7.3489391997        3.3842457943        0.7824422536
