73
 xtb: 6.7.1 (edcfbbe)
C           -1.53266480120345        4.98970660477468        0.02751858711648
C           -0.82431404485355        3.67231102750834        0.02227735901010
C            0.56918735660900        3.61650996018019        0.04141284533258
C            1.23139046811511        2.41099201536207        0.04911509006086
C            0.51774569530689        1.20572271563605        0.03744205955100
C           -0.88177788320615        1.24940095017249        0.02097753625559
C           -1.52512558682430        2.47812564927995        0.01321732931277
C           -1.72164851151326       -0.00205282356624        0.00617477406030
C           -2.53632030785024       -0.00802915488001       -1.27854889190379
C           -1.84469050452590       -0.02173714532224       -2.47687907197787
C           -2.51311902809207       -0.02496710964299       -3.69076481644387
C           -3.90329833729517       -0.01387654124233       -3.70503175623758
C           -4.60764582127606       -0.00045436287007       -2.52731138170969
C           -3.93607029794515        0.00247513797707       -1.28725516267070
C           -4.72870676725218        0.01582152335843       -0.08027709593223
O           -5.99348154499713        0.02586858699059       -0.11624449166245
C           -4.00661732132791        0.01572540426243        1.17041405410095
C           -4.74765630203008        0.02565883333144        2.37012887719851
C           -4.11128725165001        0.02579498964200        3.58607392057299
C           -2.72252916767930        0.01597251048177        3.65096402575917
C           -1.98615016531912        0.00635249745328        2.47702730745198
C           -2.60853730974188        0.00610250192947        1.24123562426292
C           -0.88220272976081       -1.25329579659405        0.03437292399094
C           -1.52643977534299       -2.48207708125834        0.03719373751907
C           -0.82629974669972       -3.67599528873149        0.05085066808929
C           -1.52991123044969       -4.99583628467747        0.08632371840175
C            0.56787132416398       -3.62066352549977        0.06078620215895
C            1.23058754050604       -2.41584617786461        0.05815572378129
C            0.51716432561783       -1.21008937248593        0.04742059149000
N            1.18665108539487       -0.00235859857826        0.04480988447443
C            2.61090112549475       -0.00212781458702        0.04338766042999
C            3.30645982077736        0.04152915659089       -1.15690421999832
C            4.68703753120504        0.04273739487576       -1.15106611752611
C            5.41228715719679        0.00075304058308        0.03840925068644
C            6.93127528176324        0.00467940700309       -0.01351697269383
C            7.56981434305519       -0.04167973274800        1.37711410420876
C            7.40248465048274        1.28662831827345       -0.71480505583739
C            7.40581102295313       -1.22530238039682       -0.80035715119952
C            4.69687416343879       -0.04318679508165        1.22949917587151
C            3.31281724097180       -0.04462184155914        1.23751111278591
H           -1.44362104413944        5.45881806944939        1.00646793339838
H           -2.58848307527034        4.86225249939331       -0.19756938914112
H           -1.09380360398820        5.66441696010369       -0.70622349543457
H            1.13847154042684        4.53425888473578        0.04835703953597
H            2.31038963408631        2.39171288207673        0.06316128948723
H           -2.60549999744521        2.48979125821336       -0.00087848933732
H           -0.76174497326753       -0.03261730791065       -2.45802595488899
H           -1.95240521300608       -0.03935258349575       -4.61367864860857
H           -4.43206845112639       -0.01842086979259       -4.64671435065758
H           -5.68585243256917        0.00763684071124       -2.51274589148166
H           -5.82512932624268        0.03527254998610        2.29255815826597
H           -4.69637669158244        0.03587415652194        4.49516273514693
H           -2.21893753112166        0.01727641795197        4.60538719437735
H           -0.90579845396792       -0.00075525460509        2.52122975606212
H           -2.60642620157912       -2.49322844538188        0.03188232643614
H           -1.33616592071757       -5.51646004472486        1.02266056870826
H           -2.61222301345677       -4.85705066690059       -0.03929455516793
H           -1.16300686802859       -5.63424694386783       -0.74402523698049
H            1.13694015326633       -4.53912059908322        0.07593723033287
H            2.31003874370581       -2.39668517780084        0.06497579651784
H            2.76082599568101        0.07255629999874       -2.08827668459204
H            5.20226478441227        0.07485553096559       -2.09835957522902
H            7.28445837151543        0.82723192318457        1.96845228854517
H            7.28819365007433       -0.94530092150744        1.90982143727028
H            8.65302380178402       -0.03432924883076        1.27704811070298
H            7.03416296724948        1.33943036154539       -1.73678512994095
H            8.48915848982577        1.31692278788019       -0.74530336009901
H            7.04720253325512        2.16287957694431       -0.17854332826193
H            8.49264136745289       -1.24968675840038       -0.83323655763710
H            7.03431223626999       -1.21491605010341       -1.81965072925637
H            7.05637514767286       -2.13728662265251       -0.31801486717633
H            5.20851904667224       -0.07395275914170        2.17709009631982
H            2.77251617361779       -0.07645193049891        2.17236562194509
