73

C     -2.226910    5.069979   -0.010894
C     -1.499180    3.759741    0.017856
C     -0.110431    3.715026   -0.003774
C      0.553998    2.485181   -0.008398
C     -0.139442    1.254192   -0.002379
C     -1.543538    1.296376    0.004171
C     -2.204275    2.554188    0.008561
C     -2.388829    0.000029    0.003625
C     -3.237834    0.000273   -1.295721
C     -2.597136    0.000478   -2.557087
C     -3.330871    0.000733   -3.744304
C     -4.719855    0.000787   -3.700814
C     -5.372043    0.000586   -2.469536
C     -4.637607    0.000326   -1.272419
C     -5.380038    0.000109    0.003585
O     -6.607105    0.000126    0.003501
C     -4.637777   -0.000122    1.279654
C     -5.372218   -0.000327    2.476750
C     -4.720010   -0.000530    3.708031
C     -3.331010   -0.000544    3.751547
C     -2.597265   -0.000358    2.564352
C     -3.238028   -0.000140    1.303003
C     -1.543653   -1.296392    0.003786
C     -2.204503   -2.554143    0.007845
C     -1.499519   -3.759766    0.016744
C     -2.227390   -5.069921   -0.012270
C     -0.110768   -3.715175   -0.005037
C      0.553773   -2.485388   -0.009363
C     -0.139553   -1.254337   -0.002803
N      0.565748   -0.000104   -0.006656
C      1.999833   -0.000157   -0.013106
C      2.704192    0.000912   -1.221580
C      4.103836    0.000966   -1.228773
C      4.840123   -0.000062   -0.031515
C      6.379276   -0.000014   -0.003615
C      6.884843    1.257825    0.735418
C      7.029808    0.001762   -1.405502
C      6.884910   -1.259637    0.732312
C      4.112818   -0.001207    1.176076
C      2.714798   -0.001230    1.188067
H     -2.442881    5.355537   -1.044984
H     -1.629998    5.860339    0.456285
H     -3.168974    5.004535    0.543627
H      0.472698    4.632953   -0.016155
H      1.640985    2.514011   -0.019521
H     -3.293193    2.592202    0.005815
H     -1.509250    0.000448   -2.619935
H     -2.814809    0.000895   -4.701247
H     -5.296609    0.000986   -4.622070
H     -6.460555    0.000633   -2.444405
H     -6.460724   -0.000329    2.451620
H     -5.296751   -0.000679    4.629294
H     -2.814948   -0.000708    4.708490
H     -1.509349   -0.000387    2.627049
H     -3.293424   -2.592060    0.005165
H     -1.630415   -5.860519    0.454430
H     -3.169260   -5.004583    0.542591
H     -2.443728   -5.355067   -1.046395
H      0.472275   -4.633154   -0.017771
H      1.640757   -2.514309   -0.020699
H      2.160061    0.001726   -2.162752
H      4.595156    0.001840   -2.197762
H      6.516677    2.172145    0.255038
H      6.560515    1.282651    1.781505
H      7.980316    1.300681    0.738893
H      6.745728   -0.885453   -1.983360
H      8.124102    0.001844   -1.333216
H      6.745441    0.890266   -1.981232
H      7.980389   -1.302373    0.735793
H      6.516910   -2.172797    0.249597
H      6.560447   -1.287114    1.778294
H      4.629576   -0.002112    2.133475
H      2.181663   -0.002092    2.135205
