72

C     -6.407414   -0.000102    0.145795
C     -5.048296   -0.000062    0.890649
C     -5.290014   -0.000080    2.423619
C     -4.298837   -1.288236    0.522068
C     -4.867033   -2.547035    0.840689
C     -4.228265   -3.744127    0.528045
C     -3.003606   -3.713358   -0.113819
C     -2.428942   -2.485159   -0.442785
C     -3.058170   -1.253233   -0.139502
N     -2.448202    0.000022   -0.501115
C     -1.224218    0.000061   -1.253980
C     -0.000004    0.000051   -0.561724
C      1.224214    0.000068   -1.253974
N      2.448195    0.000039   -0.501103
C      3.058205    1.253259   -0.139443
C      2.429023    2.485217   -0.442691
C      3.003734    3.713385   -0.113690
C      4.228388    3.744087    0.528190
C      4.867108    2.546962    0.840805
C      4.298872    1.288194    0.522134
C      5.048299   -0.000018    0.890645
C      5.290058   -0.000083    2.423609
C      6.407398    0.000017    0.145760
C      4.298874   -1.288200    0.522027
C      4.867108   -2.546994    0.840597
C      4.228368   -3.744094    0.527921
C      3.003707   -3.713338   -0.113941
C      2.429008   -2.485146   -0.442864
C      3.058202   -1.253211   -0.139537
C      1.219829    0.000107   -2.661912
C      2.443189    0.000128   -3.413675
N      3.401622    0.000146   -4.068229
C      0.000004    0.000126   -3.355767
C     -1.219826    0.000101   -2.661918
C     -2.443182    0.000118   -3.413689
N     -3.401606    0.000135   -4.068253
C     -3.058254    1.253238   -0.139506
C     -2.429111    2.485205   -0.442803
C     -3.003852    3.713367   -0.113834
C     -4.228506    3.744058    0.528046
C     -4.867194    2.546923    0.840696
C     -4.298919    1.288160    0.522073
H     -7.017240    0.876022    0.392419
H     -6.260040   -0.000063   -0.941653
H     -7.017163   -0.876294    0.392366
H     -4.338875   -0.000106    2.970938
H     -5.859109    0.873877    2.758297
H     -5.859133   -0.874035    2.758260
H     -5.831567   -2.608243    1.340591
H     -4.689970   -4.693523    0.785477
H     -2.492994   -4.639431   -0.363194
H     -1.466625   -2.517569   -0.944308
H     -0.000006    0.000021    0.527817
H      1.466712    2.517676   -0.944220
H      2.493166    4.639486   -0.363056
H      4.690124    4.693457    0.785658
H      5.831642    2.608120    1.340715
H      5.859188    0.873850    2.758287
H      4.338938   -0.000093    2.970954
H      5.859164   -0.874057    2.758219
H      6.259999    0.000056   -0.941686
H      7.017187    0.876167    0.392381
H      7.017195   -0.876148    0.392307
H      5.831645   -2.608193    1.340495
H      4.690088   -4.693485    0.785342
H      2.493120   -4.639420   -0.363344
H      1.466689   -2.517563   -0.944381
H      0.000007    0.000158   -4.446845
H     -1.466800    2.517675   -0.944333
H     -2.493304    4.639475   -0.363222
H     -4.690264    4.693422    0.785493
H     -5.831726    2.608067    1.340609
