  66
 
 C         -7.1930060374       -2.1376503858       -1.8502880100
 C         -8.3813568826       -1.4437563131       -1.7400171846
 C         -8.4110075703       -0.2477513422       -1.0375122318
 C         -7.2641458871        0.2368677781       -0.4358201929
 C         -6.0603178130       -0.4762107348       -0.5133834725
 C         -6.0405687141       -1.6557943008       -1.2479986698
 N         -4.9147718437        0.0416374213        0.0985413095
 C         -5.0034961424        1.2648065909        0.7705765700
 C         -3.9267354028        1.8181033343        1.4532034870
 C         -4.0506971708        3.0295594929        2.1165941804
 C         -5.2551800905        3.7038033147        2.1198438391
 C         -6.3485692755        3.1506420320        1.4692295110
 C         -6.2297560282        1.9420690685        0.8076071597
 O         -7.3667328671        1.4442500125        0.2150333252
 C         -3.6954867491       -0.6639204758        0.0569266232
 C         -2.5883961121       -0.1092655298       -0.5835697668
 C         -1.3856186114       -0.7851550222       -0.6074727695
 C         -1.2654482674       -2.0317560220        0.0087487070
 C         -2.3871732685       -2.5974547628        0.6173926001
 C         -3.5878246757       -1.9206344699        0.6513538251
 C          0.0000499965       -2.8006564914       -0.0028605185
 O          0.0001271932       -4.0242430662       -0.0041189303
 C          1.2654683764       -2.0315886759       -0.0128445857
 C          1.3854872427       -0.7862763394        0.6060033158
 C          2.5882070236       -0.1102226017        0.5835849002
 C          3.6953801586       -0.6634457937       -0.0579916575
 C          3.5878721781       -1.9189150310       -0.6550659454
 C          2.3872753578       -2.5959060187       -0.6226180711
 N          4.9146376365        0.0422781053       -0.0980379525
 C          6.0601270020       -0.4767923061        0.5129377142
 C          6.0401926351       -1.6576200924        1.2455463760
 C          7.1925664528       -2.1406913297        1.8469836833
 C          8.3810400928       -1.4468352862        1.7378027378
 C          8.4108983714       -0.2496923786        1.0372445275
 C          7.2640952251        0.2361600981        0.4364406200
 O          7.3668730595        1.4445684827       -0.2124767600
 C          6.2299630107        1.9435339097       -0.8042197071
 C          6.3489867478        3.1530986881       -1.4639862908
 C          5.2556681087        3.7075001544       -2.1136649300
 C          4.0510233028        3.0335439882       -2.1113165359
 C          3.9268438941        1.8210990718       -1.4497716615
 C          5.0035577109        1.2664836883       -0.7681470830
 H         -7.1485886318       -3.0591973121       -2.4102237244
 H         -9.2817654822       -1.8152443862       -2.2032876117
 H         -9.3175820423        0.3300138770       -0.9479347450
 H         -5.1157180390       -2.1998768270       -1.3571860634
 H         -2.9847143299        1.2938795131        1.4748104334
 H         -3.1958274115        3.4365425060        2.6344614892
 H         -5.3574514928        4.6481216552        2.6308753921
 H         -7.3096382497        3.6405895783        1.4680794759
 H         -2.6829915807        0.8516648091       -1.0671582719
 H         -0.5448219530       -0.3594143561       -1.1333679028
 H         -2.2898057827       -3.5691046914        1.0790373285
 H         -4.4463838041       -2.3539789008        1.1424047513
 H          0.5446289029       -0.3617432387        1.1327744325
 H          2.6826884105        0.8497000484        1.0691885357
 H          4.4465204834       -2.3511663352       -1.1469217774
 H          2.2900202611       -3.5665883148       -1.0863174809
 H          5.1152357914       -2.2017036091        1.3538449328
 H          7.1480053824       -3.0631603356        2.4053871251
 H          9.2814010653       -1.8192611393        2.2004117399
 H          9.3175914979        0.3280262971        0.9485642405
 H          7.3101591257        3.6428415990       -1.4621539121
 H          5.3581083433        4.6525949337       -2.6232255019
 H          3.1961858888        3.4415468990       -2.6284336431
 H          2.9846872797        1.2971462691       -1.4720383272
