  96
 
 C         -9.8272887361       -4.7853690830        0.0956892457
 C        -10.2576902096       -3.4682085435        0.0467202802
 C         -9.3369482149       -2.4386342345        0.0155987761
 C         -7.9711799457       -2.7198570824        0.0341521142
 C         -6.9947874096       -1.6311345238        0.0033684884
 N         -7.4582569647       -0.3752032936       -0.0279509658
 C         -6.5339570969        0.5930243335       -0.0544914321
 C         -6.9920846480        1.9813397455       -0.0929754710
 C         -8.3543267984        2.2747843076       -0.0414591015
 C         -8.7828503875        3.5878646476       -0.0767353055
 C         -7.8599683707        4.6189972299       -0.1647244714
 C         -6.5036371151        4.3337424458       -0.2171040786
 C         -6.0688005706        3.0233571961       -0.1813624319
 N         -5.2391903535        0.3593433389       -0.0466255049
 C         -4.8276962154       -0.9225818683       -0.0133339967
 C         -3.4291166958       -1.2082100169       -0.0021716769
 C         -2.9640987945       -2.5393440792       -0.0010014799
 C         -1.6243190754       -2.8316012007        0.0040391398
 C         -0.6966577575       -1.7829961274        0.0114777637
 C         -1.1640141088       -0.4465370522        0.0159018581
 C         -2.4932179856       -0.1500080757        0.0073450896
 C          0.0095307494        0.5241608464        0.0291918250
 C         -0.0077493995        1.3549732701        1.2850088116
 C          0.0445948752        0.7419694454        2.5310498875
 C          0.0157560415        1.4889924159        3.6928525251
 C         -0.0684466064        2.8744240480        3.6258566505
 C         -0.1208440907        3.5031169082        2.4005067248
 C         -0.0902126842        2.7468482763        1.2280404472
 O         -0.1438193274        3.4429756802        0.0597730132
 C         -0.0839718448        2.7716653255       -1.1226649781
 C         -0.1096395878        3.5524099800       -2.2790938897
 C         -0.0507326575        2.9496495406       -3.5171211050
 C          0.0355655847        1.5660407259       -3.6127784851
 C          0.0594661128        0.7947379175       -2.4668389509
 C         -0.0000977612        1.3813723990       -1.2085113885
 C          1.1882668286       -0.4373055037        0.0237393590
 C          2.5157928480       -0.1319079907        0.0258207689
 C          3.4587906224       -1.1838379275        0.0148879312
 C          4.8561828155       -0.8918339970        0.0105894645
 N          5.7455292210       -1.9033547054       -0.0214797174
 C          7.0249766352       -1.5948753277       -0.0346998368
 C          8.0035482127       -2.6811863790       -0.0779175073
 C          7.5797932131       -4.0100250146       -0.0967590583
 C          8.5072551828       -5.0326005074       -0.1400069226
 C          9.8633533494       -4.7424404903       -0.1649103900
 C         10.2909834331       -3.4235966491       -0.1464262465
 C          9.3684002279       -2.3961125517       -0.1028027651
 N          7.4850831646       -0.3376009477       -0.0133686125
 C          6.5585867311        0.6282241490        0.0241475416
 C          7.0150635368        2.0173873627        0.0509952481
 C          6.0912632333        3.0596203959        0.1302470888
 C          6.5254702349        4.3705190245        0.1542391195
 C          7.8816326028        4.6560812311        0.0993162578
 C          8.8050636186        3.6247156022        0.0203600818
 C          8.3771675898        2.3112138318       -0.0033673963
 N          5.2642928483        0.3913810968        0.0357513082
 C          3.0028426676       -2.5181732648        0.0047962779
 C          1.6652125883       -2.8198995022        0.0054484015
 C          0.7306472232       -1.7775563524        0.0142050166
 N         -5.7144264669       -1.9365708303        0.0091268428
 C         -7.5446366525       -4.0470160217        0.0835353398
 C         -8.4702804947       -5.0716996098        0.1140396946
 H        -10.5485087049       -5.5887800287        0.1195514092
 H        -11.3141693883       -3.2445202713        0.0323976574
 H         -9.6544855531       -1.4081759579       -0.0234301148
 H         -9.0589772783        1.4605976793        0.0273205224
 H         -9.8390321642        3.8094861108       -0.0360474909
 H         -8.1971607898        5.6445086631       -0.1924445570
 H         -5.7844031660        5.1364340252       -0.2859735787
 H         -5.0171106920        2.7843247065       -0.2224156985
 H         -3.7001427224       -3.3287770779       -0.0070780339
 H         -1.2846213874       -3.8564112412        0.0022651221
 H         -2.8575039572        0.8661329384        0.0093291354
 H          0.1074764143       -0.3350689355        2.5769547475
 H          0.0574600569        0.9942249215        4.6509540783
 H         -0.0924237091        3.4610345519        4.5312274385
 H         -0.1854186191        4.5767047816        2.3172213903
 H         -0.1755934534        4.6239586081       -2.1736200778
 H         -0.0711954850        3.5551035768       -4.4100808582
 H          0.0826711549        1.0915041910       -4.5807822497
 H          0.1239438171       -0.2810523590       -2.5350975530
 H          2.8722593120        0.8869511268        0.0322317201
 H          6.5212104064       -4.2185103552       -0.0774264708
 H          8.1739685733       -6.0598062549       -0.1541622219
 H         10.5860220548       -5.5441910113       -0.1986315765
 H         11.3467526085       -3.1969453360       -0.1655894551
 H          9.6838157647       -1.3643753350       -0.0877270639
 H          5.0396824265        2.8204726223        0.1727568277
 H          5.8058545965        5.1734689234        0.2158170666
 H          8.2182548104        5.6819902942        0.1178582247
 H          9.8611416054        3.8464665200       -0.0223176573
 H          9.0822622402        1.4968355131       -0.0646782024
 H          3.7443619259       -3.3024088322       -0.0032312258
 H          1.3325780363       -3.8469898958       -0.0017968525
 H         -6.4853858424       -4.2525125667        0.0979658233
 H         -8.1348357225       -6.0975916461        0.1520248320
