  88
 
 C        -10.3493581745       -0.6565547508       -0.7382271640
 C         -9.0807025686       -1.3679261899       -0.2284955469
 C         -9.4273282236       -2.7902284605        0.2539614738
 C         -8.5167318606       -0.5875979018        0.9409482341
 C         -9.2939431292       -0.3929198123        2.0747523557
 C         -8.8204347072        0.2896140895        3.1804423751
 C         -7.5269195660        0.7877840942        3.1708641656
 C         -6.7330232424        0.6113311347        2.0596374601
 C         -7.2158331796       -0.0617704632        0.9285479537
 N         -6.4002500424       -0.2082547275       -0.1758948476
 C         -5.0901846601        0.3509480066       -0.1479487825
 C         -4.9021498287        1.7208818962       -0.3389690164
 C         -3.6374006343        2.2535726491       -0.3036445804
 C         -2.5035613970        1.4434716852       -0.0874725283
 C         -1.2026664825        2.0571285886       -0.0615366391
 C         -0.0000456976        1.3571028875       -0.0081623158
 C          1.2026313302        2.0579059102        0.0310140330
 C          2.5034401316        1.4446125332        0.0681079334
 C          3.6374750241        2.2580582969        0.2701769468
 C          4.9022416841        1.7259573623        0.3131396108
 C          5.0902669967        0.3531027652        0.1438219845
 N          6.4002827240       -0.2055256790        0.1772349539
 C          6.8160564922       -0.8726319106        1.3123936766
 C          5.9589075536       -0.9532968084        2.4188727260
 C          6.3362546578       -1.6270424496        3.5590062130
 C          7.5819760980       -2.2316235853        3.6224446981
 C          8.4393094375       -2.1363070014        2.5414496751
 C          8.0879482561       -1.4612078055        1.3802624332
 C          9.0797701131       -1.3674407152        0.2392938763
 C         10.3479650062       -0.6554258705        0.7492812771
 C          9.4261623461       -2.7916594112       -0.2376631529
 C          8.5187958695       -0.5908093273       -0.9340057524
 C          9.2986690275       -0.4010267465       -2.0668257152
 C          8.8279105321        0.2769520472       -3.1764554096
 C          7.5342046326        0.7746527380       -3.1721604912
 C          6.7377284880        0.6029729200       -2.0620288397
 C          7.2180617152       -0.0644527130       -0.9264919710
 C          3.9834921001       -0.4690173941       -0.0650020517
 C          2.7158375837        0.0633796844       -0.0992176678
 N          1.1661049670        3.4347713907        0.0355133904
 C          0.0001934541        4.0214876988       -0.0354459870
 N         -1.1657954309        3.4336163130       -0.0940840423
 C         -2.7162286397        0.0653573882        0.1033723554
 C         -3.9838538430       -0.4676139308        0.0761395860
 C         -6.8184615550       -0.8794844895       -1.3075747825
 C         -5.9625924360       -0.9662375626       -2.4145638887
 C         -6.3427506544       -1.6433722705       -3.5517518293
 C         -7.5898135437       -2.2455978622       -3.6113794559
 C         -8.4454156394       -2.1451720420       -2.5294516330
 C         -8.0912543260       -1.4665715666       -1.3711672076
 H        -10.1001493515        0.3451604184       -1.0838737465
 H        -10.7932173359       -1.2043254949       -1.5642798098
 H        -11.0895390501       -0.5733019831        0.0520755918
 H         -8.5295021561       -3.2892850688        0.6143628383
 H         -9.8474901296       -3.3804494086       -0.5551174048
 H        -10.1501413702       -2.7572658073        1.0639203105
 H        -10.2987689240       -0.7850264200        2.1031906604
 H         -9.4524630923        0.4253908673        4.0448662492
 H         -7.1351894722        1.3120924038        4.0296458381
 H         -5.7243662578        0.9935589340        2.0567294118
 H         -5.7605225065        2.3541760692       -0.5126209641
 H         -3.4796563625        3.3114898132       -0.4472334484
 H         -0.0000807345        0.2793660063        0.0029538076
 H          3.4799449469        3.3182064095        0.3965005731
 H          5.7606970910        2.3620331809        0.4758726308
 H          4.9924650082       -0.4763113921        2.3740275651
 H          5.6587599015       -1.6784798422        4.3981994828
 H          7.8860032766       -2.7664378465        4.5093626824
 H          9.4099689878       -2.6023165829        2.6114914213
 H         10.0988428197        0.3475541945        1.0913078276
 H         10.7897802808       -1.2009576849        1.5779050809
 H         11.0897705432       -0.5752107747       -0.0398093000
 H          8.5286193898       -3.2911975541       -0.5981057980
 H          9.8442952288       -3.3795036887        0.5741891089
 H         10.1505383433       -2.7620150167       -1.0463506288
 H         10.3034310038       -0.7935586218       -2.0913204654
 H          9.4620068604        0.4091766218       -4.0399131421
 H          7.1442251587        1.2947479507       -4.0342995657
 H          5.7288357067        0.9845138716       -2.0638045620
 H          4.1331174567       -1.5306412960       -0.2030723887
 H          1.8813353764       -0.5975535117       -0.2755083991
 H          0.0002831811        5.1066152420       -0.0465123459
 H         -1.8819506658       -0.5925825336        0.2914943731
 H         -4.1336951041       -1.5268306171        0.2313602136
 H         -4.9950554885       -0.4911767078       -2.3723215446
 H         -5.6664224539       -1.6993711609       -4.3915962640
 H         -7.8961153287       -2.7828472279       -4.4960443875
 H         -9.4168928464       -2.6099311821       -2.5964378655
