  80
 
 C         -5.8763218496       -0.0001751271        3.0658922116
 C         -6.1234154673       -0.0000700238        1.5462236747
 C         -7.6346906380       -0.0000420317        1.2523823400
 C         -5.5132474384        1.2571157448        0.9554244392
 C         -5.9596600626        2.5001323788        1.3816980623
 C         -5.4405110483        3.6791142314        0.8791999265
 C         -4.4437621533        3.6251777364       -0.0781215470
 C         -3.9810738901        2.4037072339       -0.5195932215
 C         -4.5051799218        1.2104129428       -0.0135848757
 N         -4.0194927966        0.0000577002       -0.4767977599
 C         -3.0112983532        0.0001201305       -1.4825277317
 C         -3.3956258109        0.0001961478       -2.8275313258
 C         -2.4583299434        0.0002551468       -3.8405441107
 C         -1.1183773841        0.0002369387       -3.4817530457
 N         -0.0000220031        0.0002774109       -4.2750676130
 C          1.1183407404        0.0002309005       -3.4817634230
 C          2.4582899604        0.0002433215       -3.8405669509
 C          3.3955952058        0.0001777303       -2.8275628630
 C          3.0112802842        0.0001021512       -1.4825556790
 N          4.0194844113        0.0000223786       -0.4768354038
 C          4.5051417316       -1.2104010824       -0.0137695067
 C          3.9809956678       -2.4036218446       -0.5199095629
 C          4.4436565516       -3.6251567128       -0.0785870234
 C          5.4404174602       -3.6792327444        0.8787139616
 C          5.9596059824       -2.5003239347        1.3813425603
 C          5.5132222739       -1.2572452002        0.9552199585
 C          6.1234338779       -0.0001457967        1.5461582309
 C          7.6347041538       -0.0001755417        1.2522909724
 C          5.8763663177       -0.0002174357        3.0658310036
 C          5.5133005119        1.2570515188        0.9553476869
 C          5.9597652063        2.5000596115        1.3815917200
 C          5.4406503784        3.6790512540        0.8790812614
 C          4.4438820326        3.6251337489       -0.0782210984
 C          3.9811430483        2.4036720178       -0.5196642207
 C          4.5052174783        1.2103679821       -0.0136463170
 C          1.6753051678        0.0000951829       -1.1185773813
 C          0.7181040639        0.0001586982       -2.1237125136
 C         -0.7181280707        0.0001609989       -2.1237058578
 C         -1.6753198464        0.0001032685       -1.1185618725
 C         -4.5051850055       -1.2103561128       -0.0137441062
 C         -3.9810836297       -2.4035865867       -0.5199072827
 C         -4.4437850199       -3.6251126927       -0.0786025967
 C         -5.4405421680       -3.6791697525        0.8787034318
 C         -5.9596833756       -2.5002511753        1.3813579275
 C         -5.5132572366       -1.2571809703        0.9552548371
 H         -4.8064413894       -0.0001964255        3.2660488179
 H         -6.3118626104       -0.8807683599        3.5300809296
 H         -6.3118499157        0.8803613719        3.5302004321
 H         -8.1123896758        0.8802676615        1.6735423304
 H         -7.8020434480        0.0000295851        0.1768103320
 H         -8.1123985802       -0.8804023722        1.6734262051
 H         -6.7366613542        2.5574744522        2.1291955821
 H         -5.8113311168        4.6290059516        1.2332960203
 H         -4.0234647444        4.5337876042       -0.4833755579
 H         -3.2024323607        2.3670913626       -1.2662066461
 H         -4.4493516229        0.0001883291       -3.0626059961
 H         -2.7594512387        0.0003043859       -4.8772281904
 H         -0.0000266544        0.0003289130       -5.2804456921
 H          2.7594016407        0.0002987061       -4.8772538206
 H          4.4493188433        0.0001796111       -3.0626472886
 H          3.2023443542       -2.3668980788       -1.2665074920
 H          4.0233266251       -4.5337075192       -0.4839397950
 H          5.8112143746       -4.6291760026        1.2326956987
 H          6.7366157626       -2.5577747857        2.1288228642
 H          8.1124455847        0.8801092075        1.6734551003
 H          7.8020384163       -0.0000955652        0.1767160153
 H          8.1123839945       -0.8805610642        1.6733141434
 H          6.3119087513       -0.8808042780        3.5300302446
 H          4.8064892695       -0.0002266009        3.2660060568
 H          6.3119088387        0.8803252275        3.5301140261
 H          6.7367810046        2.5573869187        2.1290752315
 H          5.8115090851        4.6289357841        1.2331558706
 H          4.0236072316        4.5337516967       -0.4834805486
 H          3.2024860021        2.3670704482       -1.2662623741
 H          1.3944498077        0.0000371894       -0.0766926308
 H         -1.3944548466        0.0000496847       -0.0766797202
 H         -3.2024348525       -2.3668770893       -1.2665087555
 H         -4.0234876552       -4.5336715694       -0.4839711373
 H         -5.8113693076       -4.6291058172        1.2326724523
 H         -6.7366886065       -2.5576873038        2.1288439771
