  97
 
 C         -9.1404235217       -3.8100544721       -3.3171211840
 C         -9.9058547198       -2.8697199444       -2.6450405095
 C         -9.2968706961       -1.9320831404       -1.8339450219
 C         -7.9108967003       -1.9290375424       -1.6900858260
 C         -7.2623489549       -0.9376843955       -0.8313644801
 N         -8.0361916045       -0.0827757508       -0.1687842213
 C         -7.4061587164        0.7995433380        0.6015244076
 C         -8.2165733759        1.7600047960        1.3508005381
 C         -7.6021346235        2.7300845231        2.1402798410
 C         -8.3701074248        3.6352096356        2.8464860699
 C         -9.7533272319        3.5807463950        2.7721769813
 C        -10.3694623719        2.6175764481        1.9882717870
 C         -9.6072768371        1.7097744792        1.2791755944
 N         -6.0840280551        0.8618024653        0.7322418904
 C         -5.3873668902       -0.0299396243        0.0332432961
 C         -3.9309853900       -0.0019720515        0.1438579209
 C         -3.1510594358       -0.8636417725       -0.6263182313
 C         -1.7772066270       -0.8385490626       -0.5251881225
 C         -1.1559481261        0.0460421991        0.3566752335
 N          0.2367351096        0.0668217292        0.4639811552
 C          1.0370268801        1.1934007278        0.4286391812
 C          0.6931822021        2.5237272697        0.2365462343
 C          1.7087526672        3.4575872893        0.2050647576
 C          3.0551656123        3.1006724504        0.3565846376
 C          4.1005398262        4.1357924876        0.3208873624
 C          5.1635714924        4.0852145390        1.2321260180
 C          6.1709366515        5.0306096547        1.2408371019
 C          6.1011217163        6.0446014731        0.3026219605
 O          6.9876919436        7.0652886187        0.1388165151
 C          6.5194441635        7.8125417100       -0.8986099010
 C          7.1025414648        8.9539571213       -1.4185110764
 C          6.4612681003        9.5656648690       -2.4811155831
 C          5.2773577394        9.0556813653       -3.0075484906
 C          4.6955922625        7.9159664949       -2.4876791514
 C          5.3215571016        7.2850335294       -1.4211978239
 C          5.0444593325        6.1176107252       -0.6263144804
 C          4.0408082686        5.1616451372       -0.6143098057
 C          3.3952184226        1.7646537566        0.5253520395
 C          2.3915009873        0.8097294524        0.5529231942
 C          2.4008793638       -0.6222807884        0.6756533960
 C          3.4143785813       -1.5524319154        0.8430166445
 C          3.0882884536       -2.8981924627        0.9502838270
 C          4.1429622348       -3.9114021481        1.1122400197
 C          5.2245453727       -3.6660744999        1.9683283595
 C          6.2395201923       -4.5848154362        2.1535572249
 C          6.1579489361       -5.7745587587        1.4527506693
 O          7.0483422658       -6.8043576346        1.4894340665
 C          6.5631499103       -7.7564328642        0.6456668609
 C          7.1426196798       -8.9813089532        0.3681246304
 C          6.4826960272       -9.8070077107       -0.5247579269
 C          5.2843487581       -9.4234386550       -1.1211414708
 C          4.7062225102       -8.2002415350       -0.8432853343
 C          5.3505955983       -7.3550781823        0.0498926620
 C          5.0822210707       -6.0460151349        0.5845135506
 C          4.0717329931       -5.1122208349        0.4166784973
 C          1.7429751865       -3.2887238667        0.9118794631
 C          0.7181532113       -2.3785990504        0.7527273991
 C          1.0523700065       -1.0393935852        0.6112669757
 C         -1.9340421146        0.9075369572        1.1301325299
 C         -3.3075449348        0.8849275227        1.0205441498
 N         -5.9343674876       -0.9469043576       -0.7600768962
 C         -7.1459993204       -2.8762267794       -2.3680611530
 C         -7.7612386244       -3.8115204244       -3.1770442112
 H         -9.6192032320       -4.5425141123       -3.9506190334
 H        -10.9803522599       -2.8704198144       -2.7559626819
 H         -9.8759749302       -1.1924824973       -1.3038766100
 H         -6.5248299840        2.7578207710        2.1850515885
 H         -7.8922454880        4.3868613806        3.4577157440
 H        -10.3517283005        4.2896360443        3.3257404505
 H        -11.4474509540        2.5769750282        1.9321463869
 H        -10.0690139100        0.9529352707        0.6648929029
 H         -3.6429142199       -1.5389412776       -1.3082490675
 H         -1.1715002288       -1.4868060209       -1.1404885119
 H         -0.3347473214        2.8249331913        0.1036529626
 H          1.4584582558        4.5002257680        0.0768503152
 H          5.1829896069        3.2908807299        1.9632105508
 H          6.9817308748        4.9869645592        1.9503188499
 H          8.0194956498        9.3440415325       -1.0068104530
 H          6.8891660212       10.4584755964       -2.9116781523
 H          4.8087989219        9.5631395253       -3.8375788021
 H          3.7782812883        7.5207684280       -2.8966783007
 H          3.2390289610        5.2031649090       -1.3356723467
 H          4.4302515279        1.4686034255        0.6045288276
 H          4.4453857129       -1.2340393518        0.8699834028
 H          5.2528934759       -2.7360697320        2.5160078154
 H          7.0646667124       -4.3895027306        2.8196125434
 H          8.0707862914       -9.2727559117        0.8329122381
 H          6.9070875930      -10.7704029280       -0.7642363168
 H          4.8014072467      -10.0973419748       -1.8129837396
 H          3.7775679383       -7.9033316741       -1.3062776786
 H          3.2545805918       -5.3083338378       -0.2606546086
 H          1.5015047735       -4.3338666995        1.0367631328
 H         -0.3112612728       -2.7033366189        0.7550584046
 H         -1.4521290861        1.5750068127        1.8286910946
 H         -3.9204051001        1.5413132824        1.6176838653
 H         -6.0744244830       -2.8628263359       -2.2459712721
 H         -7.1669081844       -4.5455405626       -3.7013882434
