  66
 
 O         -0.7968607707        2.8555212223       -3.3629838866
 S          0.3976170206        2.5901991171       -2.5744974071
 O          1.6622262897        2.5249428291       -3.2908475452
 C          0.5173397327        3.7932547837       -1.2906011770
 C         -0.6337736795        4.4175227667       -0.7863708309
 C         -0.5132415309        5.1875036360        0.3507325597
 C          0.7366148179        5.2965847879        0.9560923666
 N          1.8344361031        4.6957694933        0.4801239096
 C          1.7203037232        3.9659933048       -0.6048913784
 C          0.1774830756        1.1063427661       -1.6655264590
 C          1.3074027949        0.4198363597       -1.1861459176
 C          1.1518635409       -0.5949072215       -0.2740546713
 N          2.2853157032       -1.3040157495        0.2062280642
 C          3.1925380168       -0.6864385407        1.0502250430
 C          3.0357736739        0.6312574621        1.4802003912
 C          3.9672752041        1.2116935102        2.3190264268
 C          5.0714606540        0.4897208223        2.7533841592
 C          5.2361382437       -0.8248381168        2.3549863844
 C          4.3057957074       -1.4167517900        1.5140799308
 O          4.5109938446       -2.7200770790        1.1677861909
 C          3.6165835439       -3.3097020958        0.3242533177
 C          3.8487350915       -4.6286466381       -0.0378012637
 C          2.9839056016       -5.2707545485       -0.9059947416
 C          1.8934189708       -4.5879130767       -1.4278533985
 C          1.6550935394       -3.2738072408       -1.0742194018
 C          2.4992860072       -2.6157774968       -0.1804011075
 C         -0.1219881309       -0.9541390715        0.2085191614
 C         -1.2388795003       -0.2450870618       -0.2713955474
 N         -2.5287372585       -0.5999808399        0.2105390642
 C         -3.1431048977       -1.7581969787       -0.2320970071
 C         -2.5415437893       -2.6112210787       -1.1561573126
 C         -3.1807411318       -3.7656113922       -1.5658372142
 C         -4.4371270408       -4.0882681817       -1.0706094875
 C         -5.0617857973       -3.2434007322       -0.1703728218
 C         -4.4269333820       -2.0835793498        0.2485334670
 O         -5.0956307211       -1.2782947043        1.1237528802
 C         -4.4793507629       -0.1369278247        1.5465658884
 C         -5.1684125770        0.6706371859        2.4385111818
 C         -4.5833179759        1.8293436638        2.9174224679
 C         -3.3019299921        2.1774389275        2.5103840908
 C         -2.6092647227        1.3832295555        1.6168724408
 C         -3.1876823139        0.2203254232        1.1087913970
 C         -1.1016560408        0.7725281152       -1.1833754766
 H         -1.5679016332        4.2926611147       -1.3123989272
 H         -1.3674788148        5.6990947189        0.7674702870
 H          0.8841931422        5.8852102979        1.8499496184
 H          2.6195792292        3.4936969806       -0.9784266528
 H          2.2751660307        0.6977014112       -1.5718060023
 H          2.1824459260        1.1982860142        1.1442721214
 H          3.8285897526        2.2344930446        2.6311887453
 H          5.7992767427        0.9476093203        3.4037798293
 H          6.0772328338       -1.4144810184        2.6828641556
 H          4.7133812446       -5.1265871483        0.3706421605
 H          3.1669491007       -6.2967156839       -1.1822327866
 H          1.2266952435       -5.0797862306       -2.1181560241
 H          0.8200823290       -2.7377277725       -1.4934290614
 H         -0.2376047833       -1.7449141710        0.9297381139
 H         -1.5746117348       -2.3508533219       -1.5533968595
 H         -2.6974827037       -4.4139738818       -2.2793461425
 H         -4.9335294010       -4.9902808015       -1.3905763377
 H         -6.0433363280       -3.4592597108        0.2199973719
 H         -6.1571621880        0.3684504176        2.7444803845
 H         -5.1230717386        2.4544201297        3.6104718218
 H         -2.8365385554        3.0717119826        2.8933364522
 H         -1.6146873403        1.6557227986        1.3018015602
 H         -1.9513817364        1.3161353179       -1.5639720940
