  49
 
 C          8.9973927679       -0.4931000073       -0.0396061507
 O          7.9701472742       -1.4486085379        0.1320316979
 C          6.6812441705       -1.0498936059        0.0840118583
 C          5.7187885768       -2.0595073741        0.2686156546
 C          4.3826641741       -1.7734984594        0.2425568162
 C          3.9245942567       -0.4492532859        0.0253621249
 C          2.5525025795       -0.1324328375       -0.0071917391
 C          1.4417810612       -0.9803028613        0.1173677612
 C          0.2109838538       -0.3799259253       -0.0075306299
 C         -1.0438913666       -1.1029599274       -0.0203528383
 C         -2.0674349089       -0.7685386129       -0.9151163422
 C         -3.2485905791       -1.4778229392       -0.9298330078
 C         -3.4300272500       -2.5393632734       -0.0477955817
 C         -4.6984445027       -3.3282421614       -0.0722770604
 F         -5.7572546695       -2.6386524366       -0.5343908254
 F         -5.0614157637       -3.7963489335        1.1384957760
 F         -4.6160217994       -4.4284541017       -0.8648455927
 C         -2.4138456641       -2.9016216267        0.8334845727
 C         -1.2345000658       -2.1903858322        0.8416333258
 C          0.3213677431        1.0542333695       -0.1601942189
 C         -0.6719101931        2.0111576602       -0.0807417797
 N         -1.9801502591        1.7800313014        0.1421107398
 C         -2.5763081159        2.9835228927        0.1536308344
 C         -3.9243446906        3.3156766430        0.3410738499
 C         -4.2663394842        4.6489419092        0.3111968054
 C         -3.3128296899        5.6525263654        0.1020634912
 C         -1.9717965887        5.3558956247       -0.0869630120
 C         -1.6141014965        4.0221468696       -0.0609376587
 N         -0.4221212858        3.3769204986       -0.2032019519
 S          2.0075874744        1.5357399814       -0.2680208667
 C          4.9064901293        0.5511696368       -0.1576332288
 C          6.2483842374        0.2640186611       -0.1306611856
 H          9.9293849793       -1.0496224814        0.0424283481
 H          8.9401200118       -0.0211243518       -1.0243539450
 H          8.9605790143        0.2734417138        0.7394401766
 H          6.0686385619       -3.0669065169        0.4327491280
 H          3.6694996987       -2.5681050808        0.3882872983
 H          1.5547127843       -2.0420765705        0.2401312282
 H         -1.9228535859        0.0363618590       -1.6157256387
 H         -4.0350246391       -1.2142133970       -1.6206294268
 H         -2.5618738835       -3.7283799830        1.5119127850
 H         -0.4582326048       -2.4570140815        1.5420867569
 H         -4.6545992865        2.5384576307        0.5000923427
 H         -5.2981556392        4.9353863015        0.4518281704
 H         -3.6315707553        6.6839048215        0.0877514259
 H         -1.2403379566        6.1335415025       -0.2469387970
 H          0.4805048243        3.7917341110       -0.3580321637
 H          4.5819335735        1.5677658978       -0.3240933328
 H          6.9590259167        1.0618148420       -0.2758697902
