  70
 
 N        -10.3248127848        2.5416973744        1.7238508630
 C         -9.3787565282        1.9321018019        1.4632854922
 C         -8.2347533541        1.1922329428        1.1565444500
 C         -7.8650287681        0.0700337720        1.9412352894
 C         -6.7338656300       -0.6363599019        1.6361854992
 C         -5.9136778016       -0.2731444510        0.5554276221
 N         -4.7467485020       -1.0141305244        0.3105173271
 C         -4.7276303218       -2.3543714249       -0.0459031515
 C         -5.7911106554       -3.2183260705       -0.2520889753
 C         -5.4937877250       -4.5207368401       -0.6224309350
 C         -4.1793184179       -4.9438175259       -0.7860534023
 C         -3.1141167615       -4.0761126176       -0.5898448239
 C         -3.3884662884       -2.7701799368       -0.2195146611
 C         -2.5667862014       -1.6176974732        0.0615189021
 C         -1.2087760583       -1.4032144661        0.0773106173
 C         -0.7149955062       -0.1265239976        0.4030777964
 C          0.7100194201        0.1302730068        0.4025744241
 C          1.6226569060       -0.8949401814        0.7473823354
 C          2.9793855850       -0.6924266770        0.7626245761
 C          3.4603264674        0.5637413645        0.3855897524
 C          2.5622826514        1.6188023976        0.0522075997
 C          1.2041813504        1.4048722528        0.0693031652
 C          3.3844630559        2.7691010802       -0.2362821941
 C          3.1107014044        4.0726734977       -0.6152898664
 C          4.1762928790        4.9385557097       -0.8173523780
 C          5.4905850783        4.5159620667       -0.6510754549
 C          5.7873377124        3.2158924132       -0.2721611106
 C          4.7234702529        2.3538437924       -0.0601062064
 N          4.7420260569        1.0159091584        0.3048560380
 C          5.9084201105        0.2756208858        0.5542553050
 C          6.7289966417        0.6447880385        1.6326919627
 C          7.8591898178       -0.0610887430        1.9424253046
 C          8.2275252402       -1.1888688654        1.1650857520
 C          9.3703111495       -1.9284197484        1.4768893192
 N         10.3152792082       -2.5379884304        1.7416649543
 C          7.4332255131       -1.5435302418        0.0625872110
 C          6.2989780185       -0.8246486627       -0.2491422084
 C          5.5344145566       -1.2257449441       -1.4731207862
 F          6.3307029407       -1.7439903874       -2.4274182187
 F          4.6031540071       -2.1813352265       -1.2345551778
 F          4.8695793663       -0.2180131591       -2.0662330819
 C         -1.6279858518        0.9005388497        0.7413426472
 C         -2.9846801395        0.6977440144        0.7574992097
 C         -3.4652305703       -0.5609093529        0.3883044224
 C         -6.3054870111        0.8214924093       -0.2549972648
 C         -5.5411665958        1.2158320931       -1.4813245060
 F         -6.3377728102        1.7274685716       -2.4389100179
 F         -4.6108645847        2.1737586503       -1.2484326720
 F         -4.8752858119        0.2051262796       -2.0681598334
 C         -7.4407212043        1.5408986718        0.0519597804
 H         -8.4833633790       -0.2108453729        2.7794625371
 H         -6.4389855532       -1.4813756475        2.2397093045
 H         -6.8116403265       -2.8894410594       -0.1308334121
 H         -6.3007062527       -5.2176428480       -0.7896397924
 H         -3.9860766835       -5.9651839257       -1.0767251597
 H         -2.0974248587       -4.4090565138       -0.7277248596
 H         -0.5322524815       -2.1954078112       -0.1998729683
 H          1.2382982432       -1.8532532138        1.0572451519
 H          3.6549322449       -1.4780604815        1.0639357899
 H          0.5278994923        2.1955864759       -0.2126627614
 H          2.0941583711        4.4051833104       -0.7552952476
 H          3.9835157132        5.9580973828       -1.1146774305
 H          6.2978125723        5.2113540653       -0.8230272397
 H          6.8077231563        2.8873083085       -0.1489000029
 H          6.4351562310        1.4940729597        2.2306882498
 H          8.4778212004        0.2244344132        2.7788480397
 H          7.7285186986       -2.3796886412       -0.5540986808
 H         -1.2439668098        1.8608377811        1.0454258449
 H         -3.6605005360        1.4850861285        1.0536918533
 H         -7.7370596231        2.3726039020       -0.5702219441
