  92
 
 C         -8.3665685705       -3.5328563919        0.7024859598
 C         -7.2638595618       -2.5371831892        0.5009894656
 C         -7.1612400035       -1.3992395113        1.2851092065
 C         -6.1498859870       -0.4689199348        1.0900683241
 C         -6.0871377724        0.7271022065        1.9952799430
 C         -5.1835769743       -0.6669844704        0.0902416576
 B         -3.9959771276        0.3386780590       -0.1196808457
 C         -2.5371845244       -0.2269317193       -0.0751420435
 C         -2.1921449342       -1.2959044385        0.7585197889
 C         -0.9051565827       -1.7919031843        0.8103137827
 C          0.0801251956       -1.2572597546       -0.0158910322
 N          1.3833164705       -1.7787193175        0.0063712994
 C          1.7193581546       -3.1155263617       -0.0832659120
 C          0.9026018818       -4.2262400257       -0.2484053296
 C          1.5065221687       -5.4660369948       -0.3325725305
 C          2.8914591893       -5.6088292070       -0.2652077024
 C          3.7115564582       -4.5067686901       -0.1297435219
 C          3.1268142845       -3.2494022087       -0.0431852782
 C          3.6580245775       -1.9207577765        0.0719057755
 C          4.9484956514       -1.4200459016        0.1602739734
 C          5.1217135532       -0.0478446294        0.2614964876
 N          6.4208727471        0.4912992556        0.3130297850
 C          6.9029119731        1.3616370798        1.2673083238
 C          6.2773776877        1.8688632720        2.3983122508
 C          7.0020424362        2.7196523277        3.2105181620
 C          8.3216055795        3.0590468104        2.9160054625
 C          8.9565554269        2.5411982913        1.8047600606
 C          8.2492818041        1.6825267017        0.9724575793
 C          8.5857664444        0.9637210753       -0.2241372287
 C          9.7356344009        0.8783907948       -0.9993879112
 C          9.7154858374        0.0851493200       -2.1292285960
 C          8.5631894307       -0.6070349183       -2.4985495513
 C          7.4075480097       -0.5384671895       -1.7445890318
 C          7.4276800104        0.2405238088       -0.5954315175
 C          4.0163098397        0.8100938358        0.3100690690
 C          2.7261203337        0.3251299087        0.2441433307
 C          2.5469694961       -1.0443616679        0.0972972562
 C         -0.2420458499       -0.2038491643       -0.8677917276
 C         -1.5227321279        0.3107402998       -0.8741089194
 C         -4.1857000320        1.8760292934       -0.3781004346
 C         -3.5310392207        2.8215226658        0.4272856106
 C         -2.6866004630        2.4018315276        1.5987236238
 C         -3.6660093131        4.1791682082        0.1745909242
 C         -4.4359797237        4.6475727013       -0.8779800164
 C         -4.5901021292        6.1154555579       -1.1410272681
 C         -5.0857398972        3.7145287000       -1.6743047172
 C         -4.9777586257        2.3532465043       -1.4372863978
 C         -5.6875363473        1.4016257240       -2.3563067208
 C         -5.2888728538       -1.8223335871       -0.7032582728
 C         -4.3131146566       -2.1019679042       -1.8128856247
 C         -6.3163894545       -2.7282852344       -0.4951932416
 H         -8.9966072239       -3.5837549889       -0.1857366868
 H         -7.9553046441       -4.5272189812        0.8743772724
 H         -8.9882159215       -3.2605508272        1.5521739989
 H         -7.8905304558       -1.2279310843        2.0658848589
 H         -5.2763062810        0.6151234141        2.7152416086
 H         -5.9031978539        1.6338579492        1.4249897521
 H         -7.0168792722        0.8396013533        2.5488381684
 H         -2.9507584888       -1.7319466595        1.3932713396
 H         -0.6526776347       -2.5921441288        1.4907633740
 H         -0.1697785318       -4.1283480100       -0.3191139620
 H          0.8910888010       -6.3451898265       -0.4568411690
 H          3.3247791073       -6.5959873316       -0.3309440453
 H          4.7854482356       -4.6142873684       -0.0957935812
 H          5.8020613074       -2.0804384758        0.1570114650
 H          5.2604216070        1.6001134991        2.6417150461
 H          6.5369440283        3.1294696039        4.0955735465
 H          8.8535453766        3.7306046600        3.5741156549
 H          9.9833865795        2.7937990067        1.5849370523
 H         10.6246606505        1.4253011431       -0.7218298151
 H         10.6002577349        0.0033251084       -2.7437524738
 H          8.5739122250       -1.2088795644       -3.3959475997
 H          6.5153643700       -1.0672398400       -2.0455726833
 H          4.1863060840        1.8731719392        0.3921712570
 H          1.8852217165        0.9986184186        0.3020307930
 H          0.5138979617        0.1993624740       -1.5258735397
 H         -1.7552593729        1.1367831761       -1.5313797697
 H         -1.6403356265        2.3344320379        1.2993857639
 H         -2.7580311487        3.1358643387        2.3997491722
 H         -2.9903767881        1.4324017702        1.9809423051
 H         -3.1577853847        4.8866452501        0.8166725865
 H         -4.5017772974        6.3272181160       -2.2054503950
 H         -3.8379806155        6.6889635741       -0.6040348099
 H         -5.5751101541        6.4524341643       -0.8150066323
 H         -5.6957761257        4.0610898123       -2.4980482409
 H         -6.2183038401        0.6411089174       -1.7893343616
 H         -6.3976043589        1.9332386546       -2.9860681717
 H         -4.9723314662        0.8957510802       -3.0047324169
 H         -4.8083622095       -2.6221504423       -2.6311183401
 H         -3.5077588444       -2.7407008745       -1.4493615881
 H         -3.8698808784       -1.1871385955       -2.1934140476
 H         -6.3833496766       -3.6054490194       -1.1253844150
