  71
 
 C         -5.1576631653        3.1792778303        1.5627726861
 C         -3.8380313509        3.5644663738        1.4599460613
 C         -2.8843548421        2.6941393076        0.9121325222
 C         -1.4712328481        2.9888273216        0.8275347723
 C         -0.9070345466        4.2427106783        0.9911448020
 C          0.4790992095        4.3897904968        0.8870556788
 C          1.2772028019        3.2845339932        0.6376408384
 C          0.7005398391        2.0252471351        0.4853552389
 C          1.4155669798        0.8055583205        0.2428569113
 C          0.6870459938       -0.4022538833        0.1428472288
 C          1.3189915100       -1.6002547759       -0.0820564252
 C          2.7002435570       -1.6613896279       -0.2148037682
 C          3.4388103378       -0.4788882818       -0.1065111126
 N          4.8379146366       -0.5240214018       -0.2331559245
 C          5.6821089325       -1.3568006811        0.4669008730
 C          5.3854409139       -2.2823177719        1.4587907267
 C          6.4360449539       -2.9806967496        2.0227601682
 C          7.7522095495       -2.7629166621        1.6218780602
 C          8.0560082931       -1.8265150884        0.6507953497
 C          7.0185495156       -1.1132174319        0.0691848990
 C          6.9623271273       -0.0777181431       -0.9267966436
 C          7.9229413116        0.5707983035       -1.6883288755
 C          7.5119101168        1.5334618691       -2.5919448738
 C          6.1623715363        1.8406424075       -2.7498792630
 C          5.1864594490        1.2080007756       -2.0034817597
 C          5.5949146082        0.2560812447       -1.0783130953
 C          2.8122301338        0.7318762030        0.1207902505
 N         -0.6503172015        1.9492740266        0.5784415076
 C         -3.3216571250        1.4450801752        0.4479656909
 C         -4.6437817370        1.0586614883        0.5649287163
 N         -5.0297586018       -0.2156129168        0.1213329562
 C         -4.3497800973       -1.3879820883        0.3801599634
 C         -3.2241493977       -1.6061297502        1.1645587071
 C         -2.7442093998       -2.8984603921        1.2604367413
 C         -3.3725675155       -3.9578345987        0.6100092759
 C         -4.5138658130       -3.7534882317       -0.1426896903
 C         -5.0109188641       -2.4635275482       -0.2586967101
 C         -6.1465391721       -1.8985127850       -0.9349567276
 C         -7.1493138514       -2.4365432737       -1.7278722577
 C         -8.1005535191       -1.5861659289       -2.2596909218
 C         -8.0470095043       -0.2145564343       -2.0237826214
 C         -7.0573534916        0.3447733470       -1.2379165890
 C         -6.1160683057       -0.5073897638       -0.6755090111
 C         -5.5765848823        1.9266997083        1.1356696120
 H         -5.8782832266        3.8541154237        2.0015195133
 H         -3.5389971458        4.5342792301        1.8260798094
 H         -1.5385479353        5.0954045909        1.1811409932
 H          0.9259049396        5.3654567079        1.0008308132
 H          2.3475574397        3.3906778710        0.5573535068
 H         -0.3855076762       -0.3600479165        0.2566251883
 H          0.7366320516       -2.5068113948       -0.1642009862
 H          3.2019112493       -2.5936117664       -0.4212141012
 H          4.3691589541       -2.4428556413        1.7845630517
 H          6.2328221197       -3.7084032017        2.7943413817
 H          8.5456144465       -3.3299385205        2.0854845052
 H          9.0781527566       -1.6490052402        0.3522808218
 H          8.9681055502        0.3240614199       -1.5780738209
 H          8.2446716364        2.0512346764       -3.1927176006
 H          5.8721115732        2.5868697591       -3.4745172724
 H          4.1409287456        1.4373608281       -2.1426693029
 H          3.4213192543        1.6164980450        0.2266010018
 H         -2.6061681293        0.7932353229       -0.0293133914
 H         -2.7435208136       -0.7977154323        1.6937647920
 H         -1.8642294010       -3.0899361831        1.8565320809
 H         -2.9656415687       -4.9534280817        0.7066137759
 H         -5.0115820876       -4.5777936986       -0.6307713573
 H         -7.1802099931       -3.4971534922       -1.9267629893
 H         -8.8917271684       -1.9854114902       -2.8765871799
 H         -8.7931608156        0.4271658621       -2.4684450842
 H         -7.0120673635        1.4112255577       -1.0795129631
 H         -6.6005657496        1.6136419212        1.2658632918
