  95
 
 O         -6.9243512059        2.4679281339        1.0304218406
 C         -6.2975518881        1.4885706696        0.6127670855
 C         -4.8547767775        1.3998652952        0.5553335415
 C         -4.0940330226        2.5057058023        0.9808550778
 C         -2.7309410428        2.4996067283        0.8441658978
 C         -2.0466860037        1.3863811275        0.3309129787
 C         -0.6395696927        1.5574605905       -0.0207776924
 C         -0.1647263306        1.1644798900       -1.2777138509
 C          1.1429657356        1.3758854273       -1.6456411274
 C          2.0409603944        1.9859783094       -0.7615876967
 N          3.3760542910        2.1795056668       -1.1094013679
 C          4.0481130007        1.2721644952       -1.9337901466
 C          5.0242513652        1.7234632582       -2.8252596260
 C          5.7046896162        0.8257862251       -3.6244134422
 C          5.4257830955       -0.5304148603       -3.5531932892
 C          4.4524574745       -0.9826683236       -2.6761711329
 C          3.7671004834       -0.0939033038       -1.8716320661
 C          4.0695424991        3.2917736832       -0.6080235631
 C          3.4565153406        4.5442043776       -0.5605924084
 C          4.1451587624        5.6336931892       -0.0626232691
 C          5.4479764299        5.4929085062        0.3902053539
 C          6.0607422018        4.2502269052        0.3434764733
 C          5.3800983082        3.1537549611       -0.1496890333
 C          1.5676215491        2.4011346403        0.4876399584
 C          0.2531901344        2.1987464366        0.8425337010
 C         -2.7689504167        0.1951399783        0.0573531801
 C         -2.1422970635       -1.0468402132       -0.2513933618
 C         -0.7542371563       -1.3282435682        0.0723003124
 C         -0.2123242011       -0.9461546514        1.3091296617
 C          1.0781702140       -1.2628362364        1.6535854937
 C          1.9004258528       -1.9722155513        0.7662581454
 N          3.2156250606       -2.2766916075        1.0905852626
 C          3.9767187030       -1.4333542609        1.9070594009
 C          4.9127562983       -1.9726954849        2.7923111817
 C          5.6820767519       -1.1404888000        3.5816600873
 C          5.5318760187        0.2358093365        3.5059211083
 C          4.5991914317        0.7755194915        2.6340565714
 C          3.8259813353       -0.0473152554        1.8389848314
 C          3.8075127728       -3.4437369299        0.5812907882
 C          3.0939553580       -4.6423123853        0.5518461848
 C          3.6839215078       -5.7861985606        0.0492357371
 C          4.9860062578       -5.7527457427       -0.4258877942
 C          5.6984528727       -4.5637665075       -0.3961184284
 C          5.1173146507       -3.4134921875        0.1019277224
 C          1.3608803104       -2.3732362226       -0.4632376087
 C          0.0623444891       -2.0680064537       -0.7934047678
 C         -2.9195419312       -2.1036803731       -0.7661598101
 C         -4.2816498517       -2.0243425382       -0.8458643275
 C         -4.9422689324       -0.8702643481       -0.3728311938
 C         -4.1924598674        0.2441339406        0.0836311222
 C         -6.3476880543       -0.7808367465       -0.3443003981
 N         -7.2179171732       -1.7048261998       -0.7333879374
 C         -8.4450718103       -1.1720531452       -0.5062979196
 C         -9.7111739515       -1.7143189046       -0.7349296896
 C        -10.8080905546       -0.9469818007       -0.4088019646
 C        -10.6745091638        0.3335548821        0.1338776463
 C         -9.4301262192        0.8943247648        0.3705658228
 C         -8.3257375799        0.1329592801        0.0461039625
 N         -6.9647129100        0.3658292458        0.1420368272
 H         -4.6224692830        3.3647809428        1.3664571563
 H         -2.1680364921        3.3887470169        1.0883726799
 H         -0.8505163896        0.7144495211       -1.9800451368
 H          1.4781666806        1.0904635732       -2.6315858401
 H          5.2364594363        2.7802085560       -2.8926268428
 H          6.4534546539        1.1889311992       -4.3127538879
 H          5.9610003389       -1.2287616863       -4.1783443628
 H          4.2332458920       -2.0379441112       -2.6105597992
 H          3.0130790918       -0.4516265544       -1.1880745859
 H          2.4456650245        4.6556803320       -0.9246308773
 H          3.6639073974        6.6001297008       -0.0353953753
 H          5.9821813111        6.3473210561        0.7772865528
 H          7.0726151438        4.1319053939        0.7014961819
 H          5.8516165811        2.1826280143       -0.1736842782
 H          2.2445803615        2.8729043687        1.1841632748
 H         -0.0836199384        2.5069647118        1.8209930531
 H         -0.8412257693       -0.4275051446        2.0170206060
 H          1.4590593115       -0.9885334948        2.6259265982
 H          5.0239084527       -3.0444999619        2.8627105781
 H          6.3988162310       -1.5698320335        4.2658182613
 H          6.1360842204        0.8828322995        4.1233648549
 H          4.4809735311        1.8465336555        2.5644018690
 H          3.1062501102        0.3773998332        1.1569653466
 H          2.0844511244       -4.6699492541        0.9348954041
 H          3.1262721972       -6.7107692753        0.0360653957
 H          5.4426596723       -6.6493847395       -0.8165445608
 H          6.7103107778       -4.5294676521       -0.7714259589
 H          5.6655750731       -2.4833899813        0.1123606583
 H          1.9799857586       -2.9118115908       -1.1648395988
 H         -0.3197679411       -2.3629807328       -1.7588121174
 H         -2.4231888142       -3.0218323680       -1.0434417990
 H         -4.8842677202       -2.8366057152       -1.2184205657
 H         -9.8102531930       -2.7033428856       -1.1540575563
 H        -11.8002429754       -1.3410959608       -0.5750866884
 H        -11.5617552724        0.9000422843        0.3747653992
 H         -9.3162772335        1.8823356747        0.7890141302
