  92
 
 C          6.6045344378       -2.6657334031        0.0010177587
 C          5.7450837545       -1.3870172887       -0.0032869131
 C          6.6499961001       -0.1408979059       -0.0086142790
 C          4.8935785717       -1.3810051505       -1.2597827183
 C          5.5079974944       -1.3395322615       -2.5039874234
 C          4.7845351339       -1.3369050787       -3.6828776459
 C          3.4031325387       -1.3782181383       -3.6285262329
 C          2.7674121917       -1.4269963736       -2.4052821981
 C          3.4963001117       -1.4308663520       -1.2130695170
 N          2.8281289189       -1.5052815730       -0.0012019650
 C          1.4094364646       -1.5053286178       -0.0004134397
 C          0.7027270794       -2.6801786123       -0.0005534426
 C         -0.7012859091       -2.6805477962        0.0001997736
 C         -1.4086231658       -1.5060752267        0.0002726866
 N         -2.8273141029       -1.5068458546        0.0011042994
 C         -3.4969822832       -1.4248718823       -1.2094194157
 C         -2.7694821570       -1.4134122914       -2.4024154186
 C         -3.4066414497       -1.3566653750       -3.6245629144
 C         -4.7881163876       -1.3152446404       -3.6770162537
 C         -5.5102316403       -1.3262203184       -2.4973490815
 C         -4.8943429699       -1.3755614809       -1.2541536894
 C         -5.7443678965       -1.3911290678        0.0032799894
 C         -6.6027360080       -2.6705672269       -0.0005060539
 C         -6.6503451629       -0.1457803163        0.0081743604
 C         -4.8928088451       -1.3839099630        1.2597359441
 C         -5.5072054456       -1.3425161073        2.5039543110
 C         -4.7836869147       -1.3387825371        3.6828076974
 C         -3.4022505371       -1.3788985019        3.6284048468
 C         -2.7665472908       -1.4276178697        2.4051499287
 C         -3.4954891493       -1.4325595110        1.2129742038
 C         -0.7119630648       -0.2682094855       -0.0004489027
 N         -1.3965786267        0.8829764931       -0.0028581209
 C         -0.7156656160        2.0128944216       -0.0025399622
 C         -1.4340510005        3.2666119791       -0.0085832979
 C         -2.8322653809        3.2542505981       -0.0187046748
 C         -3.5454403633        4.4304439243       -0.0267476572
 C         -2.8618953632        5.6414870235       -0.0252578313
 C         -1.4836317789        5.6676620451       -0.0149578708
 C         -0.7298403832        4.4879153454       -0.0057823943
 C          0.7275048051        4.4882969250        0.0059843215
 C          1.4806804705        5.6684369510        0.0151689036
 C          2.8589576574        5.6429813161        0.0254844398
 C          3.5431348825        4.4322951449        0.0269721187
 C          2.8305727282        3.2557307031        0.0189254005
 C          1.4323525419        3.2673617175        0.0087924343
 C          0.7146231925        2.0132690316        0.0027231326
 N          1.3961276253        0.8837074879        0.0029813078
 C          0.7121136026       -0.2678358054        0.0004693605
 C          3.4976774794       -1.4223235822        1.2093234404
 C          2.7701218686       -1.4112741621        2.4022889201
 C          3.4071773070       -1.3535789283        3.6244464592
 C          4.7886067842       -1.3107502680        3.6769408620
 C          5.5107797099       -1.3213981744        2.4973067479
 C          4.8949895580       -1.3717179716        1.2541012450
 H          5.9629127616       -3.5453508525        0.0047592893
 H          7.2379321845       -2.7073044864       -0.8809033769
 H          7.2390793780       -2.7006140289        0.8823992559
 H          7.2880610449       -0.1280802169       -0.8874025089
 H          6.0399395669        0.7602494326       -0.0136101649
 H          7.2866257503       -0.1194247919        0.8710435358
 H          6.5853565173       -1.3115134576       -2.5624760491
 H          5.2953650160       -1.3042510322       -4.6333774206
 H          2.8165513598       -1.3751487588       -4.5357775231
 H          1.6884299886       -1.4621114092       -2.3688692402
 H          1.2349853398       -3.6197631832       -0.0011894631
 H         -1.2330532903       -3.6204114755        0.0006838177
 H         -1.6904683418       -1.4490728185       -2.3674737328
 H         -2.8211330202       -1.3476262985       -4.5324671194
 H         -5.3000569858       -1.2764076640       -4.6266838143
 H         -6.5876821381       -1.2985396929       -2.5544351313
 H         -5.9603602579       -3.5496301962       -0.0040036305
 H         -7.2373305936       -2.7062972507       -0.8818184563
 H         -7.2360177908       -2.7123799599        0.8814870413
 H         -7.2883408133       -0.1331347070        0.8870178174
 H         -6.0410460021        0.7558795367        0.0127351411
 H         -7.2870716212       -0.1252127589       -0.8714368130
 H         -6.5845855501       -1.3154145556        2.5624844128
 H         -5.2944987639       -1.3061942679        4.6333193106
 H         -2.8156298024       -1.3749726946        4.5356274407
 H         -1.6875375478       -1.4618534167        2.3686993493
 H         -3.3258627716        2.2953394545       -0.0203740347
 H         -4.6247862048        4.4143654949       -0.0345770414
 H         -3.4130686468        6.5702100282       -0.0322126754
 H         -0.9897761981        6.6254907440       -0.0147160612
 H          0.9863253920        6.6260080124        0.0148657078
 H          3.4096475571        6.5719912198        0.0324010602
 H          4.6224887740        4.4167781665        0.0348476115
 H          3.3246667214        2.2970764387        0.0206522940
 H          1.6911452609       -1.4480254308        2.3673200108
 H          2.8216238882       -1.3448704457        4.5323251690
 H          5.3004703835       -1.2711429107        4.6266184401
 H          6.5882023382       -1.2927047740        2.5544299722
