  111
 
 C          8.7642638589        0.3878342393       -1.4903089174
 C          7.6564765627        1.2094623626       -2.1555650147
 C          8.0272948020        2.6944373466       -2.0349085927
 C          7.5897696338        0.8081604513       -3.6360920211
 C          6.2955257503        0.9843584155       -1.5145582560
 C          5.1862207873        1.6742741331       -2.0219988089
 C          3.9158104147        1.5415333498       -1.4998768716
 C          3.7445246913        0.6912806124       -0.4175044152
 C          4.8398488472       -0.0335444921        0.0977258253
 C          6.1059368193        0.1170501441       -0.4486855666
 C          4.3240330232       -0.8442188594        1.1688085674
 C          4.9167691405       -1.7392297430        2.0468035050
 C          4.1458774072       -2.3669862557        3.0144810677
 C          4.7269029852       -3.3634628106        4.0061183085
 C          6.2253033235       -3.5980800218        3.7958280618
 C          4.5234963554       -2.8319173795        5.4321030069
 C          4.0074374595       -4.7103406829        3.8451280015
 C          2.7809817168       -2.0589499816        3.0858801494
 C          2.1654517066       -1.1728341598        2.2252189934
 C          2.9405402504       -0.5736475224        1.2432651406
 N          2.5997040358        0.3489128077        0.2752912758
 C          1.3230544549        0.8752118251        0.0523981836
 C          1.1595581672        2.2479759521       -0.0506497521
 C         -0.1115872503        2.7987651950       -0.2542548234
 C         -0.2136001652        4.2612916243       -0.3170209558
 O          0.8209027977        4.9604842999       -0.4575321223
 C         -1.5088803514        4.8783844386       -0.1623717258
 C         -1.5861292110        6.2949747027       -0.2035274878
 C         -2.7971868098        6.8999189170       -0.0196005869
 C         -3.9421577407        6.1207994941        0.2115599250
 C         -3.7856488660        4.7472994229        0.2419871618
 N         -2.6183575833        4.1738525478        0.0628176380
 C         -1.1998049891        1.9392043539       -0.4023092353
 C         -1.0412784708        0.5675032574       -0.2450536688
 N         -2.1594158104       -0.2626803531       -0.3554751757
 C         -3.3786492264       -0.0358311868        0.2527669017
 C         -3.7648900556        0.9594392872        1.1385638976
 C         -5.0594080114        0.9307679683        1.6160570228
 C         -5.9847951641       -0.0573836871        1.2540670395
 C         -7.3912607702        0.0077821553        1.8302243402
 C         -8.0391183931        1.3398170530        1.4255649432
 C         -7.3132730188       -0.0891217128        3.3605308830
 C         -8.2871416194       -1.1272830303        1.3267786736
 C         -5.5767666797       -1.0628489023        0.3899224168
 C         -4.2816422619       -1.0581992525       -0.1073333651
 C         -3.5652170659       -1.9413539719       -0.9891095936
 C         -3.9261601116       -3.0962138895       -1.6672667353
 C         -3.0032225924       -3.7303629880       -2.4857858932
 C         -3.3266019105       -5.0031276941       -3.2536101021
 C         -2.3548996554       -6.1109453656       -2.8223137385
 C         -3.1764443091       -4.7356147669       -4.7579903818
 C         -4.7530488863       -5.4980550197       -2.9990103361
 C         -1.7273999991       -3.1666136207       -2.6171213710
 C         -1.3415573735       -2.0193296338       -1.9538421678
 C         -2.2635119862       -1.4103777761       -1.1158254261
 C          0.2209158721        0.0243925915       -0.0215325898
 H          8.8693147636        0.6506163777       -0.4402257276
 H          8.5660434608       -0.6782688013       -1.5746265766
 H          9.7124504430        0.5923242705       -1.9835827822
 H          7.3064357366        3.3269042063       -2.5449626913
 H          8.0580310723        2.9896506871       -0.9881588919
 H          9.0070721794        2.8727064204       -2.4732314487
 H          8.5621733933        0.9443039387       -4.1048135065
 H          6.8645929962        1.4082457833       -4.1782763162
 H          7.3046516485       -0.2378255228       -3.7294749450
 H          5.3165935871        2.3421313301       -2.8593511798
 H          3.0866712231        2.0840527498       -1.9269223862
 H          6.9202684850       -0.4506590043       -0.0305112287
 H          5.9742246595       -1.9245926918        1.9598375151
 H          6.7888048006       -2.6782311364        3.9336949019
 H          6.5839450123       -4.3228612558        4.5240097287
 H          6.4238067356       -3.9942304143        2.8025903764
 H          3.4692794899       -2.7109992964        5.6647673033
 H          5.0101935883       -1.8654214596        5.5453729109
 H          4.9542120172       -3.5225042895        6.1541486883
 H          4.4222527248       -5.4413012261        4.5360441567
 H          4.1325346684       -5.0839675844        2.8308510852
 H          2.9435686175       -4.6195062401        4.0453134647
 H          2.1728331470       -2.5239700035        3.8465675901
 H          1.1156340393       -0.9456611762        2.3314374957
 H          2.0011724877        2.9134139875        0.0612135632
 H         -0.6675443319        6.8333747260       -0.3804224679
 H         -2.8787411876        7.9769210073       -0.0514763329
 H         -4.9102392789        6.5697694679        0.3602129466
 H         -4.6204038332        4.0794030492        0.4138635054
 H         -2.1697521791        2.3309907642       -0.6637856430
 H         -3.0803759367        1.7326309831        1.4509637052
 H         -5.3578929744        1.7081592164        2.3028651655
 H         -9.0575119586        1.3914724100        1.8049910740
 H         -7.4869144229        2.1872768134        1.8219951987
 H         -8.0696492323        1.4286239460        0.3414732694
 H         -6.7402894970        0.7319413909        3.7821612039
 H         -6.8369131703       -1.0223934465        3.6537553714
 H         -8.3129955503       -0.0619774540        3.7890125110
 H         -9.2793933079       -1.0257583811        1.7618639611
 H         -8.3901428401       -1.0936896890        0.2445940660
 H         -7.8916275683       -2.0973310616        1.6188344710
 H         -6.2417604503       -1.8565572038        0.0931964688
 H         -4.9268521973       -3.4755552728       -1.5451963312
 H         -1.3247362558       -5.8433958100       -3.0397386502
 H         -2.4416059508       -6.2910281232       -1.7527120041
 H         -2.5841382082       -7.0355638615       -3.3478951176
 H         -2.1603954212       -4.4460209989       -5.0107664664
 H         -3.8453449420       -3.9344295393       -5.0655104425
 H         -3.4259560204       -5.6305354181       -5.3241958250
 H         -4.9078623204       -5.7204962682       -1.9457178466
 H         -4.9253180000       -6.4120747727       -3.5638308881
 H         -5.4863081016       -4.7623761580       -3.3212463625
 H         -1.0053644689       -3.6375586397       -3.2663662160
 H         -0.3554307707       -1.6064802264       -2.1019039973
 H          0.3448807969       -1.0410875181        0.0875801066
