48
 xtb: 6.7.1 (edcfbbe)
N           -6.24744783750838       -0.01492632294454       -3.42615915333715
C           -5.68294409445634       -0.00961501679024       -2.42962862815582
C           -4.98114598223418       -0.00457816820162       -1.19910441455776
C           -5.68839843900561       -0.00003017450787        0.00000818441274
C           -4.98114188427527        0.00459380916048        1.19911823898460
C           -5.68293614142588        0.00952339193680        2.42964457805654
N           -6.24743366525549        0.01468832101981        3.42617637829539
C           -3.58615177182885        0.00443301837106        1.20047025438269
C           -2.88662463516004        0.00001289516637        0.00000331401196
C           -1.40478197517657        0.00002805051269        0.00000017000563
C           -0.71475359927150       -1.21790340891953        0.01281268620106
C           -1.39270174573508       -2.46528398025662        0.02479647764466
C           -0.70488670158587       -3.63924809883014        0.03562515163159
C            0.70478546573482       -3.63927032787355        0.03459516689817
C            1.39264929765814       -2.46532880141885        0.02334694686699
C            0.71474376114350       -1.21792017779894        0.01290279784644
C            1.40478356078077        0.00001252050029       -0.00000030840669
C            2.88663180777743        0.00004910323259       -0.00000207109669
C            3.58616453794854       -0.02958797738535        1.20046608215118
C            4.98115394251763       -0.02879899554247        1.19910628673599
C            5.68294811650033       -0.05707116298844        2.42964003154810
N            6.24744132830457       -0.08623115213195        3.42617229323023
C            5.68840398159501        0.00002239107450       -0.00001173655788
C            4.98114533206062        0.02877959554771       -1.19912610818094
C            5.68293054003386        0.05707286651556       -2.42966505439295
N            6.24742147311621        0.08591874685942       -3.42620772084677
C            3.58615641302529        0.02967489245383       -1.20047533825808
C            0.71475166986818        1.21794131038101       -0.01290556809435
C            1.39270199634039        2.46532094684828       -0.02335053494574
C            0.70488201611644        3.63928238113469       -0.03459837121941
C           -0.70479092719473        3.63930176563713       -0.03562551650947
C           -1.39265125089078        2.46535968250767       -0.02479618245607
C           -0.71474424826792        1.21795489018439       -0.01281472499274
C           -3.58615594202669       -0.00440347540958       -1.20046116746245
H           -6.76825244712953       -0.00009231326274        0.00000105273436
H           -3.04962239491641        0.00211989070996        2.13803552252858
H           -2.47300905866117       -2.46781558420945        0.00720136176808
H           -1.23300458402723       -4.58079500240437        0.01295647890592
H            1.23286597163460       -4.58083940114965        0.01235839896922
H            2.47295562693371       -2.46790550370834        0.00630337623103
H            3.04963429234000       -0.01494869414295        2.13802404915820
H            6.76825808135604        0.00010071743888       -0.00002295771952
H            3.04961487508530        0.01510401329756       -2.13803551580227
H            2.47300859974096        2.46783812529641       -0.00630573391725
H            1.23299732399478        4.58081572825516       -0.01235278309629
H           -1.23287467608098        4.58085456780579       -0.01293583184364
H           -2.47295814372201        2.46791485790998       -0.00717574394903
H           -3.04961553490380       -0.00210037818489       -2.13802119560585
