  87
 
 C         -2.7277863384        5.5200121341        1.5341824750
 C         -2.7274709821        4.9391110245        0.1182928822
 C         -2.5104396872        3.4610774391        0.1360217448
 C         -3.4758528831        2.4667372242        0.0936422332
 C         -4.9494124698        2.6349431016       -0.0856373872
 C         -5.3622033119        2.4135662950       -1.5426693639
 C         -2.7877564864        1.2355307472        0.1627021271
 C         -3.4183573083       -0.0329112384        0.1893746521
 C         -2.8213726017       -1.2450267873        0.1706708054
 N         -1.4066311035       -1.4485434676       -0.0359384496
 C         -1.1842106344       -2.8373576041        0.2912067605
 C          0.0375849532       -3.3935766364        0.4460215056
 C          1.2875766416       -2.7272619887        0.4758198863
 N          1.4602784200       -1.3734073945        0.5303207330
 C          2.8046437819       -1.1562561715        0.6404929455
 C          3.4305604053        0.1142069955        0.6773316729
 C          2.8317899558        1.3253088704        0.7142124181
 N          1.4114602332        1.5261067944        0.8827602202
 C          1.1971891711        2.9169794234        0.5578134713
 C         -0.0183435028        3.4722191522        0.3569452962
 C         -1.2672532491        2.8075237423        0.2857662888
 N         -1.4446880762        1.4529058276        0.2858037378
 C          2.4817422440        3.5568412337        0.4159304694
 C          2.6410818435        5.0138185229        0.1322665936
 C          2.4569994435        5.3223179074       -1.3555195298
 C          3.4544210892        2.6099759323        0.5105526213
 C          4.9283789588        2.7867569458        0.3527217241
 C          5.3846342751        2.4719166858       -1.0739034727
 C          3.4988209252       -2.3867659326        0.6392185656
 C          4.9811832155       -2.5556457504        0.7201261311
 C          5.6290850647       -2.4739448105       -0.6641971292
 C          2.5368312914       -3.3817549798        0.5543848479
 C          2.7493807638       -4.8576856326        0.4713038221
 C          2.5902066749       -5.3683003029       -0.9626462630
 C         -2.4641521681       -3.4728056643        0.4876538230
 C         -2.6175709485       -4.9362839479        0.7372496133
 C         -2.4920088960       -5.7325180632       -0.5638951166
 C         -3.4375985089       -2.5258862793        0.4164547875
 C         -4.9114612766       -2.7051834333        0.5686209118
 C         -5.6095915261       -2.7002396343       -0.7935000355
 Pt         0.0058508925        0.0384355601        0.4174865633
 H         -3.5168039748        5.0626377773        2.1271553487
 H         -2.8913282053        6.5957199036        1.5084303994
 H         -1.7772562703        5.3232652456        2.0254886396
 H         -3.6831901401        5.1593677970       -0.3608734763
 H         -1.9465678865        5.4254749257       -0.4723768248
 H         -5.4872504307        1.9295614024        0.5536418913
 H         -5.2403116304        3.6409596057        0.2217038058
 H         -5.0921613108        1.4103255821       -1.8654833142
 H         -6.4364516208        2.5409830915       -1.6619956178
 H         -4.8538429249        3.1256735653       -2.1891211295
 H         -4.4920562918       -0.0129480158        0.2926060804
 H         -1.1962156475       -1.3079236724       -1.0376627015
 H          0.0764934034       -4.4558364978        0.6304893616
 H          4.5069398295        0.1018057365        0.6102745512
 H          1.1782216930        1.3834265282        1.8794867445
 H         -0.0500825488        4.5362274280        0.1814346584
 H          3.6348684009        5.3401258259        0.4446291462
 H          1.9062070679        5.5784795604        0.7110726262
 H          2.5469907582        6.3914385109       -1.5343925449
 H          1.4788379932        4.9912351858       -1.6950749531
 H          3.2121427477        4.8083700814       -1.9448397353
 H          5.4494838234        2.1279692358        1.0514831526
 H          5.2011337820        3.8153322366        0.5961803332
 H          6.4641325776        2.5752686083       -1.1578717804
 H          5.1078361505        1.4568357635       -1.3469851466
 H          4.9158419744        3.1523581535       -1.7802401351
 H          5.4098344641       -1.7869917960        1.3678864065
 H          5.2148825632       -3.5251129428        1.1656087116
 H          5.4042411548       -1.5193850335       -1.1351384531
 H          6.7096692540       -2.5799451783       -0.5894544515
 H          5.2475488831       -3.2651661334       -1.3051372243
 H          2.0363550904       -5.3759586429        1.1190543824
 H          3.7525688348       -5.1007536582        0.8262316125
 H          2.7514254123       -6.4437044968       -1.0073528112
 H          1.5922821831       -5.1493826017       -1.3364441058
 H          3.3100755743       -4.8828452030       -1.6176834147
 H         -3.5919009359       -5.1352630296        1.1859201648
 H         -1.8519502102       -5.2688749323        1.4414437536
 H         -3.2673960538       -5.4338356690       -1.2657478586
 H         -1.5245170629       -5.5557634406       -1.0277211485
 H         -2.5944639634       -6.7974242175       -0.3686483138
 H         -5.1194390952       -3.6494317852        1.0739559640
 H         -5.3155124838       -1.9003027736        1.1863383361
 H         -6.6833531974       -2.8205696055       -0.6701902819
 H         -5.2392297404       -3.5157662877       -1.4105729070
 H         -5.4222682751       -1.7645959773       -1.3149523232
