  52
 
 C          5.8518958407       -2.7997797814        0.1590428019
 C          5.8607205502       -1.7235645012        1.0306952237
 C          4.8518262593       -0.7792478168        0.9833638483
 C          3.8277916087       -0.9038816091        0.0495355532
 N          2.8072111636        0.0573564284       -0.0087357879
 C          2.9932167718        1.4261576542       -0.0950152111
 C          4.1688227420        2.1556171740       -0.1771429839
 C          4.0677068105        3.5310606804       -0.2798412639
 C          2.8301699673        4.1685902693       -0.3094050649
 C          1.6548960457        3.4455118712       -0.2519830156
 C          1.7330936290        2.0633762148       -0.1483464457
 C          0.7506140840        1.0196118955       -0.0863701382
 C         -0.6436389788        1.0050406477       -0.0748947951
 C         -1.3295043124       -0.2150464950        0.0175759328
 C         -0.5802667035       -1.4076764557        0.1159293332
 C          0.8063124092       -1.4225687633        0.1160387952
 C          1.4572100298       -0.2027583680       -0.0029462479
 O         -1.1949882821       -2.6101512126        0.2271416196
 C         -2.5450606263       -2.7479018097        0.1281113642
 C         -2.9851074317       -4.0738167043        0.1617420909
 C         -4.3240018079       -4.3617868476        0.0324867985
 C         -5.2354659560       -3.3277644555       -0.1465397770
 C         -4.7975270308       -2.0221020568       -0.1641778964
 C         -3.4484505675       -1.6768289420       -0.0063892850
 B         -2.8512061563       -0.2467586755        0.0250943320
 C         -3.5049994259        1.1580224560        0.0683806987
 C         -4.8673227617        1.4461774531        0.2312021144
 C         -5.3579903262        2.7327443959        0.2292022879
 C         -4.4901514018        3.8061584377        0.0629717952
 C         -3.1410446877        3.5751903297       -0.0709324620
 C         -2.6476930018        2.2677034842       -0.0548682121
 O         -1.2937001616        2.1840760217       -0.1588142685
 C          3.8224010979       -1.9831169636       -0.8289107225
 C          4.8300235146       -2.9277283729       -0.7670666895
 H          6.6393673083       -3.5369634854        0.2013733985
 H          6.6533235287       -1.6224582632        1.7572254586
 H          4.8431345003        0.0498612691        1.6749346037
 H          5.1324794710        1.6689297703       -0.1720987965
 H          4.9692298624        4.1226151645       -0.3416857281
 H          2.7938458589        5.2450937071       -0.3875012481
 H          0.6931214864        3.9318811958       -0.2901828360
 H          1.3375012936       -2.3549388150        0.2140213781
 H         -2.2498148776       -4.8550431480        0.2802376501
 H         -4.6611698795       -5.3874299744        0.0573105915
 H         -6.2850404825       -3.5501094579       -0.2712398276
 H         -5.5184520215       -1.2361867387       -0.3232148224
 H         -5.5552149662        0.6295196625        0.3807473407
 H         -6.4157043579        2.9104211458        0.3567287656
 H         -4.8695889799        4.8171047046        0.0514310359
 H         -2.4395832027        4.3882463616       -0.1800382166
 H          3.0353180439       -2.0671229517       -1.5630617431
 H          4.8214525100       -3.7633337298       -1.4511213269
