  41
 
 C         -5.8315176741        2.1781569580        0.2709151645
 C         -5.8608578958        0.8097223043        0.0206640074
 C         -4.6947578238        0.0859845534       -0.0727756454
 C         -3.4417503907        0.7166596636        0.0853030906
 C         -2.1965021212        0.0413123233        0.0097051276
 N         -1.0290443339        0.7593255521       -0.0576960165
 C         -0.0341203930       -0.1003202565       -0.1413031169
 C          1.3442384503        0.3020097840       -0.1808827257
 C          1.6453425817        1.5630260202       -0.7510196623
 C          2.9300932730        2.0106596800       -0.8197439371
 C          4.0020959125        1.2415739512       -0.3014491915
 C          5.3355204015        1.6762058767       -0.3588866437
 C          6.3476659116        0.9142577847        0.1770037544
 C          6.0598682049       -0.3085278814        0.7934651535
 C          4.7683620225       -0.7619401614        0.8644718545
 C          3.7068161321       -0.0057345989        0.3167553539
 C          2.3776938833       -0.4530925108        0.3668243750
 N         -0.4997947423       -1.4087040051       -0.1598216059
 C          0.1665368390       -2.5854322197       -0.3709587059
 C         -0.5435658407       -3.7800388701       -0.3091989622
 C         -1.8965699089       -3.7769006692       -0.0595680403
 C         -2.5875082871       -2.5403325394        0.0695506173
 C         -1.8750726114       -1.3630586571       -0.0249554243
 C         -3.4328956782        2.1138780913        0.3146425523
 C         -4.6050873574        2.8228918705        0.4095372279
 H         -6.7525508944        2.7363102576        0.3461645165
 H         -6.8108377915        0.3105488162       -0.1084695504
 H         -4.7415675753       -0.9638828084       -0.3078440534
 H          0.8255073717        2.1460166242       -1.1411735896
 H          3.1520399516        2.9657000289       -1.2737393390
 H          5.5551933500        2.6237223453       -0.8301139127
 H          7.3704661666        1.2586256010        0.1276804178
 H          6.8643247324       -0.8945417101        1.2142643817
 H          4.5431573406       -1.7070919685        1.3381397072
 H          2.1671093655       -1.3684613915        0.9004703060
 H          1.2080193312       -2.5297528772       -0.6300427551
 H         -0.0085121371       -4.7037980761       -0.4605599877
 H         -2.4498332772       -4.6984715080        0.0135902127
 H         -3.6459320808       -2.5390349129        0.2522245349
 H         -2.4752373595        2.5975183230        0.4243952440
 H         -4.5768205560        3.8873334097        0.5938122377
