140

C      7.097976   -4.941256    0.248879
C      5.831621   -4.906556   -0.633449
C      6.247552   -4.919183   -2.120882
C      5.051713   -6.214665   -0.367333
C      5.027172   -3.630882   -0.331364
C      3.710201   -3.659048    0.148099
C      2.999128   -2.477060    0.403244
C      3.576936   -1.215599    0.200762
N      2.828336   -0.001346    0.430039
C      3.448360    1.230567    0.860597
C      2.936347    2.477775    0.474113
C      3.518110    3.677034    0.910929
C      4.631035    3.681578    1.763027
C      5.285781    4.977516    2.270152
C      4.641846    6.264649    1.706603
C      6.776488    5.002867    1.868531
C      5.172354    5.043377    3.808310
C      5.133405    2.430356    2.161258
C      4.554432    1.232248    1.722106
C      1.382315   -0.015486    0.205859
C      0.504194   -0.025934    1.337908
C      0.970991   -0.057629    2.672179
C      0.108406   -0.053459    3.770696
C     -1.275181   -0.015440    3.596463
C     -2.215703   -0.008738    4.812259
C     -3.717119    0.035605    4.446641
C     -1.923044    1.228595    5.688103
C     -1.988699   -1.287601    5.647934
C     -1.739671    0.006268    2.271324
C     -0.888393   -0.019375    1.129346
C     -1.386136   -0.023521   -0.214723
N     -2.832263   -0.019750   -0.438208
C     -3.462567    1.205692   -0.872350
C     -2.956269    2.458596   -0.497834
C     -3.554092    3.651165   -0.931946
C     -4.678994    3.642527   -1.768265
C     -5.361254    4.929938   -2.260476
C     -5.328803    4.979238   -3.803067
C     -6.829241    4.952888   -1.782559
C     -4.693455    6.226056   -1.748023
C     -5.174469    2.385411   -2.156169
C     -4.577530    1.194547   -1.722002
C     -3.573873   -1.236259   -0.197036
C     -2.994334   -2.495603   -0.400684
C     -3.705101   -3.673912   -0.135983
C     -5.022289   -3.647677    0.355327
C     -5.768037   -4.962040    0.640747
C     -7.202764   -4.761818    1.179192
C     -5.879737   -5.788309   -0.658686
C     -4.993880   -5.778819    1.697907
C     -5.594698   -2.386771    0.571201
C     -4.884327   -1.207657    0.303502
C     -0.507727   -0.028707   -1.346844
C     -0.973451   -0.060083   -2.681382
C     -0.110072   -0.048988   -3.779529
C      1.273364   -0.007336   -3.604742
C      2.214944    0.013127   -4.819845
C      3.716632    0.014699   -4.452460
C      1.964420   -1.233848   -5.695533
C      1.946678    1.282781   -5.655663
C      1.736831    0.014270   -2.279428
C      0.884846   -0.015159   -1.138076
C      4.891286   -1.184874   -0.286351
C      5.601224   -2.365226   -0.542379
H      7.677983   -5.854705    0.072132
H      6.837074   -4.911849    1.313962
H      7.764860   -4.094402    0.050378
H      6.786912   -5.839552   -2.373956
H      5.370654   -4.856364   -2.776759
H      6.907775   -4.081859   -2.373395
H      5.664601   -7.094269   -0.598555
H      4.148838   -6.279422   -0.986169
H      4.752299   -6.299838    0.684142
H      3.193086   -4.596059    0.335057
H      1.981675   -2.564871    0.776213
H      2.077083    2.540979   -0.189226
H      3.065253    4.601044    0.562103
H      3.586752    6.347240    1.992117
H      5.147926    7.159658    2.087909
H      4.703521    6.300472    0.612642
H      6.893446    4.922149    0.781390
H      7.342854    4.182249    2.322053
H      7.255555    5.936056    2.187333
H      5.604783    5.972663    4.197343
H      4.124515    5.003412    4.129070
H      5.696755    4.215335    4.297868
H      5.984302    2.365321    2.835882
H      4.965289    0.295715    2.091734
H      2.038356   -0.091466    2.879887
H      0.547111   -0.077902    4.765520
H     -3.967840    0.938633    3.877918
H     -4.342487    0.039344    5.347418
H     -4.014562   -0.836648    3.852837
H     -2.047918    2.155607    5.115963
H     -0.902367    1.222994    6.086123
H     -2.601835    1.273460    6.547659
H     -2.156591   -2.187953    5.044853
H     -2.672096   -1.327117    6.504222
H     -0.970265   -1.345566    6.047807
H     -2.810840    0.046696    2.097039
H     -2.090586    2.531263    0.155993
H     -3.106107    4.580558   -0.591174
H     -5.882869    4.149682   -4.256021
H     -5.777390    5.906360   -4.178635
H     -4.299585    4.931228   -4.177814
H     -6.889719    4.888299   -0.689558
H     -7.330767    5.877881   -2.090432
H     -7.412180    4.121005   -2.193171
H     -3.651263    6.301447   -2.079151
H     -5.215674    7.114415   -2.123215
H     -4.708881    6.282052   -0.653376
H     -6.037102    2.309478   -2.814713
H     -4.984490    0.252931   -2.082692
H     -1.979879   -2.583698   -0.781413
H     -3.201805   -4.620705   -0.320516
H     -7.693371   -5.725034    1.364943
H     -7.828540   -4.213908    0.465209
H     -7.204534   -4.211617    2.127310
H     -6.403616   -5.225544   -1.440132
H     -6.434333   -6.718374   -0.489335
H     -4.898906   -6.069113   -1.057032
H     -3.994521   -6.063916    1.351194
H     -4.869888   -5.206778    2.625048
H     -5.522965   -6.706292    1.946240
H     -6.602721   -2.279618    0.961782
H     -5.365394   -0.257982    0.526079
H     -2.040624   -0.097367   -2.889418
H     -0.548427   -0.068498   -4.774502
H      3.989019    0.900694   -3.867035
H      3.991193   -0.875199   -3.874029
H      4.343532    0.020664   -5.352316
H      0.947671   -1.258395   -6.102503
H      2.111038   -2.155238   -5.119816
H      2.650629   -1.261459   -6.549938
H      2.624535    1.341023   -6.515167
H      0.924727    1.310173   -6.049699
H      2.091683    2.188174   -5.054457
H      2.807706    0.059204   -2.104263
H      5.374276   -0.236045   -0.506941
H      6.615917   -2.274698   -0.923815
