  101
 
 C          5.3524079583       -4.2842705333       -0.0014696786
 C          5.0827798623       -2.7688482263        0.0010231800
 C          6.4072227628       -1.9842535463        0.0036022712
 C          4.3164056677       -2.4098101445       -1.2575414814
 C          4.8766974838       -2.6679601413       -2.5011520557
 C          4.2262487607       -2.3533506292       -3.6799708021
 C          2.9778700056       -1.7622408651       -3.6297136128
 C          2.3976029219       -1.4955064677       -2.4072077897
 C          3.0546894677       -1.8140328683       -1.2180970293
 N          2.4406999721       -1.5431722051        0.0008967210
 C          1.2186304879       -0.8423145006        0.0009391122
 C          0.0016131581       -1.5202824452        0.0026402529
 F          0.0029622034       -2.8581245930        0.0048967232
 C         -1.2167678884       -0.8447696144        0.0011145928
 N         -2.4374183579       -1.5480954746        0.0010531640
 C         -3.0510651806       -1.8197245650       -1.2179461981
 C         -2.3948350160       -1.4993982147       -2.4070474256
 C         -2.9747544535       -1.7668658774       -3.6295574617
 C         -4.2219138972       -2.3605406719       -3.6798335862
 C         -4.8715086026       -2.6769528914       -2.5010264078
 C         -4.3115454713       -2.4181129495       -1.2574111774
 C         -5.0769380327       -2.7792781450        0.0011417556
 C         -5.3432715206       -4.2952827475       -0.0018903778
 C         -6.4030765545       -1.9975544282        0.0042068346
 C         -4.3088289946       -2.4237020527        1.2596384446
 C         -4.8664103030       -2.6874143426        2.5032985940
 C         -4.2145993073       -2.3755315786        3.6820929262
 C         -2.9677787175       -1.7811467760        3.6317674451
 C         -2.3902413431       -1.5087974264        2.4092080941
 C         -3.0483564033       -1.8252914915        1.2201362157
 C         -1.2061873638        0.5576197534       -0.0009322382
 C         -2.4361210755        1.2599431082       -0.0018278073
 N         -3.4313370348        1.8247219036       -0.0023226244
 C         -0.0011955945        1.2675525833       -0.0016220011
 N         -0.0026331530        2.6766154454       -0.0019239570
 C         -0.0029720516        3.3469548847       -1.2211003141
 C         -0.0017517091        2.6162043626       -2.4098020603
 C         -0.0020753667        3.2546920482       -3.6323955534
 C         -0.0036670867        4.6358834673       -3.6829265753
 C         -0.0049212972        5.3587259045       -2.5042995632
 C         -0.0046049019        4.7421317232       -1.2606011560
 C         -0.0060723806        5.5883607894       -0.0020439310
 C         -1.2726954464        6.4630438282       -0.0024631690
 C          1.2583038347        6.4662864071       -0.0016727919
 C         -0.0054045094        4.7422465138        1.2565889707
 C         -0.0064593877        5.3590064721        2.5002097747
 C         -0.0059176228        4.6363407838        3.6789416305
 C         -0.0042555193        3.2551475955        3.6285765769
 C         -0.0031807161        2.6164927616        2.4060658918
 C         -0.0037716362        3.3470608245        1.2172368686
 C          1.2052267653        0.5600503467       -0.0011996046
 C          2.4337386891        1.2648519778       -0.0023471565
 N          3.4278165567        1.8316239054       -0.0032959268
 C          3.0523905314       -1.8186817387        1.2199884336
 C          2.3937682066       -1.5032125059        2.4090525108
 C          2.9720376081       -1.7739727736        3.6316184954
 C          4.2201162278       -2.3657088337        3.6819625391
 C          4.8724221715       -2.6765897602        2.5031772721
 C          4.3141121215       -2.4144536082        1.2595110533
 H          5.9183687206       -4.5763480294       -0.8815208030
 H          4.4093443314       -4.8276818272       -0.0032285084
 H          5.9168576938       -4.5794466574        0.8785208046
 H          6.2022645494       -0.9152894175        0.0053195469
 H          6.9988810226       -2.2193833924       -0.8766708830
 H          6.9974125811       -2.2225335264        0.8840124347
 H          5.8516915796       -3.1271170502       -2.5577632903
 H          4.6921576153       -2.5680182143       -4.6292199596
 H          2.4524681070       -1.5076891467       -4.5376602165
 H          1.4199751489       -1.0358753989       -2.3790792373
 H         -1.4181507480       -1.0377672519       -2.3789160067
 H         -2.4500364758       -1.5108691469       -4.5374934938
 H         -4.6875426508       -2.5757942232       -4.6290883118
 H         -5.8455508587       -3.1381225600       -2.5576488198
 H         -5.9089450362       -4.5882085994       -0.8818449105
 H         -5.9067315505       -4.5920549498        0.8781969442
 H         -4.3990323365       -4.8366473204       -0.0042531897
 H         -6.2004427646       -0.9281470050        0.0060089703
 H         -6.9944801463       -2.2338560210       -0.8759240749
 H         -6.9924958177       -2.2372305199        0.8847522693
 H         -5.8403590711       -3.1487798312        2.5599776723
 H         -4.6784236255       -2.5944970717        4.6313826326
 H         -2.4416123863       -1.5281220219        4.5396983600
 H         -1.4141237957       -1.0459796929        2.3809825360
 H         -0.0005430141        1.5359570856       -2.3814518622
 H         -0.0011161479        2.6707370881       -4.5401959688
 H         -0.0039656950        5.1486082234       -4.6322917443
 H         -0.0061895667        6.4363853799       -2.5611537046
 H         -1.3051573785        7.0990118326        0.8776579577
 H         -1.3047396259        7.0987951730       -0.8827548220
 H         -2.1579922854        5.8298855972       -0.0025900373
 H          1.2892279305        7.1021674803       -0.8819094440
 H          1.2886344951        7.1022964730        0.8784931185
 H          2.1452200858        5.8353994583       -0.0013291898
 H         -0.0077486847        6.4366725606        2.5569158358
 H         -0.0067599230        5.1491882628        4.6282401959
 H         -0.0037652961        2.6712945821        4.5364440433
 H         -0.0018479501        1.5362426398        2.3779557670
 H          1.4166690420       -1.0424718119        2.3808219868
 H          2.4454632845       -1.5217673505        4.5395411135
 H          4.6845379066       -2.5833782870        4.6312592247
 H          5.8473492095       -3.1358812684        2.5598672337
