  70
 
 N         -9.8443255089        4.0962377705        0.0455167147
 C         -8.9921723212        3.3275497608        0.1406916268
 C         -7.9562614805        2.3934914384        0.2689977149
 C         -7.6518849001        1.8282423269        1.5300262362
 C         -6.6282439641        0.9274408024        1.6473530552
 C         -5.8574047854        0.5523644657        0.5359606382
 N         -4.7969782686       -0.3452970450        0.7176643393
 C         -4.9417279721       -1.6516942394        1.1615087388
 C         -6.0960251709       -2.3288695520        1.5151887386
 C         -5.9659715942       -3.6506281557        1.9125336085
 C         -4.7250830197       -4.2754871607        1.9480508325
 C         -3.5704528444       -3.6021744944        1.5778017082
 C         -3.6770882725       -2.2805468742        1.1788751841
 C         -2.7275659566       -1.2951937959        0.7231177701
 C         -1.3699207290       -1.3105579654        0.5226206429
 C         -0.7136868841       -0.1336120701        0.1053109595
 C          0.7125392824       -0.1332486279       -0.1056147488
 C          1.4788647794        1.0451702180        0.0888265869
 C          2.8383428484        1.0713700879       -0.0780185931
 C          3.4777550382       -0.1081716589       -0.4690663850
 C          2.7265235682       -1.2929332143       -0.7266148447
 C          1.3688914707       -1.3089949181       -0.5260902606
 C          3.6761049247       -2.2769312194       -1.1851538612
 C          3.5695483593       -3.5974484272       -1.5877636832
 C          4.7242009982       -4.2696105119       -1.9600233024
 C          5.9650344713       -3.6447359881       -1.9228792055
 C          6.0950077343       -2.3240856832       -1.5218353798
 C          4.9406827811       -1.6480095897       -1.1661537649
 N          4.7958438876       -0.3428478939       -0.7186830030
 C          5.8562563064        0.5543138614       -0.5344907918
 C          6.6271825215        0.9323479732       -1.6448181005
 C          7.6509399272        1.8326848556       -1.5249888862
 C          7.9553459531        2.3944298278       -0.2623907229
 C          8.9913679537        3.3279799826       -0.1315058816
 N          9.8436211699        4.0963019792       -0.0342057497
 C          7.2184503399        1.9909720754        0.8600327889
 C          6.1903997605        1.0807589525        0.7378423286
 C          5.4958124117        0.6343255349        1.9908894789
 F          6.3158606449        0.6479587294        3.0524090686
 F          4.4513289141        1.4226068537        2.3298435447
 F          5.0035642258       -0.6161612120        1.9237459373
 C         -1.4801380624        1.0452245565       -0.0860403952
 C         -2.8396236713        1.0708291404        0.0808338830
 C         -3.4789045741       -0.1098160833        0.4687489047
 C         -6.1915411442        1.0823353639       -0.7349036116
 C         -5.4970501371        0.6393317726       -1.9892249957
 F         -6.3173378062        0.6554277763       -3.0505374705
 F         -4.4529158538        1.4288435989       -2.3263398573
 F         -5.0043730272       -0.6111577456       -1.9254345071
 C         -7.2194759686        1.9930139262       -0.8545636138
 H         -8.2303461729        2.1218358125        2.3920867869
 H         -6.3762774872        0.5058734038        2.6091848847
 H         -7.0615633121       -1.8484072202        1.4775266007
 H         -6.8473475480       -4.2047680948        2.1964285102
 H         -4.6616172237       -5.3053966712        2.2645393012
 H         -2.6113218380       -4.0959707367        1.5993651535
 H         -0.8024406182       -2.2024406154        0.7369354210
 H          0.9812321958        1.9419338512        0.4202614200
 H          3.3987248440        1.9784198951        0.0863190582
 H          0.8015096422       -2.2003668851       -0.7427762752
 H          2.6104587552       -4.0912649312       -1.6106117316
 H          4.6607952864       -5.2986298153       -2.2794025062
 H          6.8464312659       -4.1979899219       -2.2084306235
 H          7.0605093789       -1.8436494104       -1.4829309487
 H          6.3751984223        0.5134567960       -2.6078143833
 H          8.2294813093        2.1285601156       -2.3862152027
 H          7.4756819090        2.3866539010        1.8313095964
 H         -0.9826032329        1.9429135212       -0.4151137053
 H         -3.4001129998        1.9782357477       -0.0811447865
 H         -7.4766975293        2.3913945881       -1.8247391161
