56
 xtb: 6.7.1 (edcfbbe)
C           -7.88698407858076        0.02393435702294        0.13585804666719
C           -7.36362791280595        0.06895339689246        1.43918396114269
C           -6.01178395210900        0.07144305148233        1.64088940697295
C           -5.11989936500142        0.02816399793170        0.54709048848353
C           -3.72101727982317        0.03070183740883        0.72251052996120
C           -2.87123132883805       -0.01303635694882       -0.35439685484457
C           -1.40076166794937       -0.00977329559150       -0.16792671854991
C           -0.70627936191422       -1.22396331744068       -0.09570823085774
C           -1.37603863425293       -2.47321916215833       -0.18368152964134
C           -0.69051162625962       -3.64662767475211       -0.11021950321794
C            0.70984631251007       -3.64414450013169        0.05738670927011
C            1.38938776562974       -2.46832893555910        0.14690693077713
C            0.71340915420149       -1.22142798556194        0.07520779042679
C            1.40078993738244       -0.00459183585391        0.16833556782880
C            2.87128290113206       -0.00129948715833        0.35456852273217
C            3.40424783804169        0.00436448496016        1.66101521665451
C            4.75483664350599        0.00838868702137        1.86187161763392
C            5.64944852186522        0.00756028932958        0.77021734234630
C            7.04937691525159        0.01261304469711        0.94375592425288
C            7.88693636737319        0.01224798472219       -0.13659832401362
C            7.36330461974967        0.00670476825643       -1.43973264444426
C            6.01141983172092        0.00152272670399       -1.64116801931541
C            5.11976658139914        0.00187359560061       -0.54727864645431
C            3.72085055898016       -0.00279741483690       -0.72241539734233
C            0.70631897493073        1.20963738241969        0.09614711836326
C            1.37579036198993        2.45891873008465        0.18608045325574
C            0.69031936460972        3.63233072652227        0.11213738232082
C           -0.70970291937855        3.62983797522094       -0.05814517437918
C           -1.38914878880753        2.45400529914245       -0.14826060511328
C           -0.71341321391045        1.20709809103396       -0.07470161503106
C           -3.40392142531644       -0.06136957177425       -1.66105093208211
C           -4.75446889918506       -0.06321307519823       -1.86217584010507
C           -5.64930439068036       -0.01840452011854       -0.77060277616668
C           -7.04919661776492       -0.01902035112236       -0.94441911249400
H           -8.95838823068729        0.00513389638964       -0.00460505679518
H           -8.04093840643209        0.02534541304977        2.28110388449011
H           -5.60399858795169        0.02690080801605        2.64203268055453
H           -3.31900786304874        0.01740253042444        1.72654777312954
H           -2.45370080494820       -2.46373193295981       -0.29930474861662
H           -1.22176021360115       -4.58263662160604       -0.15677209930606
H            1.22827912995672       -4.58153113962242        0.13756871875963
H            2.45723425718030       -2.46158443675997        0.28916921238091
H            2.72145496031876        0.00327141801120        2.49895643386562
H            5.15879436917051        0.00498379670032        2.86470497007748
H            7.44762821469973        0.00506664678451        1.94887856628513
H            8.95836069211742        0.00335688968234        0.00345684874617
H            8.04037590288504       -0.00049874090460       -2.28200032971808
H            5.60335227673169       -0.00276778545464       -2.64236360695502
H            3.31858284717978       -0.00299776106943       -1.72637282194042
H            2.45359214791046        2.46076985195433        0.30079102053879
H            1.22167739388764        4.57964848954752        0.15808648401102
H           -1.22821544003394        4.57853848967789       -0.13751869224147
H           -2.45711516298330        2.45860337655393       -0.28945668868508
H           -2.72090371458116       -0.02403525105696       -2.49873751038168
H           -5.15816046118787       -0.02515468347670       -2.86504659595371
H           -7.44719568247495       -0.01417709374510       -1.94972318550650
