  79
 
 C         -6.0483252391       -4.8029667882        0.1915443247
 C         -6.7468700469       -3.6109627804        0.0761010711
 C         -6.0655273547       -2.4104720202        0.0281218214
 C         -4.6736499693       -2.3958790842        0.0946953407
 C         -3.9473934829       -1.1279394192        0.0427171454
 N         -4.6504802375       -0.0001241214       -0.0000421032
 C         -3.9474868726        1.1277486825       -0.0428338095
 C         -4.6738566611        2.3956272081       -0.0947209788
 C         -6.0657385258        2.4100821090       -0.0282022681
 C         -6.7471926315        3.6105138071       -0.0760715578
 C         -6.0487551747        4.8025971019       -0.1913457896
 C         -4.6640738038        4.7933567559       -0.2590049325
 C         -3.9760790643        3.5967448378       -0.2108035042
 N         -2.6170815462        1.1735063669       -0.0414273395
 C         -1.9973597170       -0.0000161852       -0.0001329566
 C         -0.5327069887        0.0000293933       -0.0001723221
 C          0.1578540543        1.1914699932        0.1866112577
 C          1.5475849959        1.1943887247        0.1721470546
 N          2.2447585533        2.3957668601        0.3322405980
 C          1.9703205096        3.5750728034       -0.3368512452
 C          1.0218339947        3.8390898261       -1.3146272093
 C          0.9780076930        5.1153408333       -1.8429006719
 C          1.8600230411        6.1083111095       -1.4229086118
 C          2.8231716434        5.8440636215       -0.4699803732
 C          2.8854079137        4.5692079362        0.0770373476
 C          3.7453860080        3.9549316253        1.0498399720
 C          4.8058748331        4.4232263112        1.8139519034
 C          5.4165682267        3.5573527936        2.6988012057
 C          4.9695945258        2.2457571959        2.8391095377
 C          3.9164120380        1.7571565348        2.0894370843
 C          3.3170899373        2.6138711378        1.1773986304
 C          2.2421094185        0.0000797427       -0.0001878871
 C          1.5476275591       -1.1942574314       -0.1724932530
 N          2.2448312338       -2.3956325507       -0.3324826519
 C          3.3172068851       -2.6137991922       -1.1775647936
 C          3.9165190424       -1.7571793557       -2.0896983823
 C          4.9697557324       -2.2458304676       -2.8392620907
 C          5.4167925723       -3.5573832698       -2.6987520298
 C          4.8061144279       -4.4231640758       -1.8138013149
 C          3.7455718848       -3.9548181692       -1.0497956567
 C          2.8855986476       -4.5689976261       -0.0769273587
 C          2.8234245551       -5.8437700794        0.4702921577
 C          1.8602687973       -6.1079234161        1.4232392942
 C          0.9781817808       -5.1149401630        1.8430502301
 C          1.0219445400       -3.8387712144        1.3145741386
 C          1.9704418667       -3.5748523142        0.3367821595
 C          0.1578979771       -1.1913866809       -0.1869537204
 N         -2.6169857973       -1.1735877758        0.0412170055
 C         -3.9757636333       -3.5969178820        0.2109409474
 C         -4.6636474520       -4.7935887631        0.2592565771
 H         -6.5838930395       -5.7403779103        0.2287246195
 H         -7.8256867283       -3.6212659993        0.0232455862
 H         -6.5915252529       -1.4732208243       -0.0630518322
 H         -6.5916518038        1.4727704917        0.0628368944
 H         -7.8260129605        3.6207083145       -0.0232701367
 H         -6.5844095706        5.7399621725       -0.2284378652
 H         -4.1217796955        5.7231471880       -0.3491230888
 H         -2.8989131069        3.5714322247       -0.2636460016
 H         -0.3956167419        2.0997540060        0.3597914747
 H          0.3445792395        3.0741811244       -1.6629661502
 H          0.2449088196        5.3462561417       -2.6017706535
 H          1.7916983986        7.0939990773       -1.8586161018
 H          3.5184238413        6.6077977357       -0.1557845479
 H          5.1385323032        5.4457235895        1.7179705672
 H          6.2450696778        3.8999650276        3.3005763315
 H          5.4540014996        1.5958863899        3.5528609168
 H          3.5662819849        0.7451861910        2.2260321648
 H          3.3211052919        0.0000992840       -0.0001970914
 H          3.5663412010       -0.7452452866       -2.2264416414
 H          5.4541571585       -1.5960357963       -3.5530865608
 H          6.2453348685       -3.9000369146       -3.3004474370
 H          5.1388262980       -5.4456286325       -1.7176593644
 H          3.5187314112       -6.6075123834        0.1562373312
 H          1.7919945276       -7.0935450034        1.8591047738
 H          0.2450784214       -5.3457776888        2.6019396040
 H          0.3446356472       -3.0738474145        1.6627747381
 H         -0.3955411727       -2.0996946343       -0.3601094815
 H         -2.8986026197       -3.5714973395        0.2638349664
 H         -4.1212695876       -5.7233166161        0.3495169936
