  67
 
 C          6.0614266956       -0.9593937077        0.7987269563
 C          4.8504527274       -1.1037753357       -0.1275599484
 O          5.1390351316       -0.1863777476       -1.2157645108
 C          4.1665198937        0.0180423678       -2.1571385110
 O          3.1577948124        0.8948483756       -1.6523844163
 C          1.8934288035        0.6864397390       -2.0450211819
 O          1.5782351039       -0.1638524031       -2.8453770260
 C          0.9296750783        1.5850588792       -1.3705433373
 C         -0.4180804031        1.4872183205       -1.7163857802
 C         -1.3619131171        2.2471819241       -1.0547998501
 C         -0.9645427202        3.1227789845       -0.0561684545
 C          0.3771837073        3.2476390233        0.2686007212
 C          1.3262181901        2.4801725714       -0.3805904954
 C          4.8112359954       -2.5524735197       -0.6837291819
 C          3.5115056281       -2.9609815808       -1.2722461445
 C          2.2947166986       -2.5007816400       -0.7325233383
 C          2.3168680769       -1.4495985259        0.1427649517
 C          3.5558392561       -0.7791978513        0.5418733326
 C          3.2114908515        0.1700635589        1.5040984385
 C          3.9412585235        1.1360100235        2.2259416732
 C          3.2656250338        2.0055790757        3.0569404601
 C          1.8838606446        1.9530042213        3.1853183688
 C          1.1290365402        1.0068364884        2.4852350672
 C          1.7899987051        0.1132619087        1.6771486760
 N          1.2706787580       -0.8744365902        0.8479273696
 C         -0.0840385623       -1.1525805593        0.6959807631
 C         -0.6380983764       -1.3425560997       -0.5759049706
 C         -1.9978971164       -1.5220980959       -0.7138443417
 C         -2.8109489289       -1.5270878953        0.4062796215
 S         -4.5841266470       -1.5512659656        0.1857340132
 O         -4.9267079039       -2.4078177495       -0.9186617917
 O         -5.2144371403       -1.7840836207        1.4588988815
 C         -4.8694640172        0.1566028196       -0.3040227736
 C         -4.8456926762        1.1404942796        0.6657565034
 C         -4.9981207599        2.4645265913        0.2902770785
 C         -5.1650030192        2.7880541100       -1.0481472676
 C         -5.1865669544        1.7925354484       -2.0130586756
 C         -5.0350882993        0.4668816681       -1.6395425618
 C         -2.2727482058       -1.3924426725        1.6740626703
 C         -0.9128554398       -1.2197996551        1.8227340815
 H          6.3221456783        0.0888510916        0.8953834998
 H          6.9136618676       -1.4756113408        0.3647972513
 H          5.8439932251       -1.3777546273        1.7771700199
 H          4.6563123618        0.5144110056       -3.0040229834
 H          3.6834819680       -0.9140136477       -2.4970318952
 H         -0.7046852015        0.8138367127       -2.5088045686
 H         -2.4062196846        2.1586911816       -1.3139354795
 H         -1.7039891734        3.7139622385        0.4635625318
 H          0.6857845032        3.9400359983        1.0372464804
 H          2.3702161833        2.5628005929       -0.1234153698
 H          5.0475253654       -3.2143686817        0.1606882235
 H          5.6161993401       -2.6585510328       -1.4151865471
 H          3.5069529551       -3.6919925902       -2.0624650335
 H          1.3725923109       -2.9671442945       -1.0367879496
 H          5.0101529823        1.2047510464        2.1223257382
 H          3.8204941818        2.7472312812        3.6122319892
 H          1.3769011550        2.6549915056        3.8293200142
 H          0.0537579352        1.0108362003        2.5631216297
 H         -0.0084400931       -1.3058875710       -1.4492858101
 H         -2.4465655483       -1.6562253026       -1.6852604320
 H         -4.7264637496        0.8542705240        1.6988242970
 H         -4.9899175466        3.2434093213        1.0379901915
 H         -5.2822446163        3.8212159072       -1.3403023089
 H         -5.3214528849        2.0495116349       -3.0529810367
 H         -5.0586535865       -0.3353618561       -2.3602500603
 H         -2.9327465459       -1.4429669080        2.5258336177
 H         -0.4780522377       -1.1547952503        2.8079393203
