  72
 
 C          6.3856751002       -3.2101440255       -1.2673871438
 C          7.5478310694       -2.4777223447       -0.9860685054
 N          7.5327283322       -1.2590146330       -0.5113354501
 C          6.3640318549       -0.6602833173       -0.2743714335
 C          5.1273221770       -1.3095041828       -0.5213262218
 C          5.1705776210       -2.6188556281       -1.0316360606
 C          3.8859238621       -0.6599181488       -0.2618104947
 N          2.7310223633       -1.2800987717       -0.4787318236
 C          1.5642920733       -0.6759154816       -0.2498770997
 C          0.3446524385       -1.3008941930       -0.4898190219
 C         -0.8651203288       -0.6563505244       -0.2525140021
 N         -2.0673971561       -1.3236179984       -0.5234562721
 C         -2.4546903029       -2.5306204310        0.0282551717
 C         -1.7516768090       -3.3824819773        0.8684363900
 C         -2.3889886271       -4.5306484363        1.3016800615
 C         -3.6953152357       -4.8242317887        0.9182667801
 C         -4.4043823762       -3.9712213995        0.0927978844
 C         -3.7847288021       -2.8140723719       -0.3571531488
 C         -4.2085179218       -1.7254480198       -1.1959010241
 C         -5.3839959629       -1.4427899934       -1.8762419909
 C         -5.4453169859       -0.2935291352       -2.6427270914
 C         -4.3449247834        0.5521063192       -2.7577712447
 C         -3.1637221764        0.2905302667       -2.0896530890
 C         -3.1140970268       -0.8349292952       -1.2799462959
 C         -0.8662091281        0.6537243174        0.2612472436
 N         -2.0697391044        1.3164813702        0.5376824615
 C         -3.1115705408        0.8230846541        1.2978666168
 C         -3.1531383559       -0.3025718106        2.1077533796
 C         -4.3306958761       -0.5695231408        2.7801506766
 C         -5.4353499351        0.2710528978        2.6689852249
 C         -5.3820440745        1.4205714325        1.9022815497
 C         -4.2102850008        1.7086427395        1.2178036091
 C         -3.7943784669        2.7992016426        0.3776197718
 C         -4.4208292284        3.9536174200       -0.0699198391
 C         -3.7185297011        4.8099672731       -0.8977136117
 C         -2.4122537200        4.5223461683       -1.2857730790
 C         -1.7682570932        3.3769561205       -0.8550494259
 C         -2.4644448641        2.5217763200       -0.0125604733
 C          0.3424094387        1.3026194445        0.4925763397
 C          1.5631082543        0.6820999791        0.2463550967
 N          2.7288499621        1.2904097427        0.4692827741
 C          3.8848492690        0.6742196998        0.2467420337
 C          5.1252930623        1.3280453736        0.5000888009
 C          5.1666277259        2.6377285583        1.0097124714
 C          6.3808544028        3.2330645729        1.2396960184
 C          7.5440983392        2.5042442525        0.9535802035
 N          7.5307916171        1.2853615725        0.4792462534
 C          6.3629975464        0.6828355146        0.2475590471
 H          6.4561477341       -4.2128779607       -1.6578487267
 H          8.5283163253       -2.9033019096       -1.1545211534
 H          4.2347435481       -3.1238930194       -1.2231138260
 H          0.3492016762       -2.2953272761       -0.9076151176
 H         -0.7428307599       -3.1558440579        1.1804075789
 H         -1.8623440780       -5.2121711983        1.9533011343
 H         -4.1588873783       -5.7308983029        1.2776007958
 H         -5.4199081172       -4.1956246166       -0.1956125579
 H         -6.2282661590       -2.1121304053       -1.8121516090
 H         -6.3529486532       -0.0533251397       -3.1759964124
 H         -4.4113713669        1.4290225507       -3.3844564879
 H         -2.3077950964        0.9372535387       -2.2069089450
 H         -2.2938069388       -0.9453280329        2.2218326725
 H         -4.3908983753       -1.4466879066        3.4071171115
 H         -6.3399642932        0.0266952936        3.2054850105
 H         -6.2296793090        2.0859321529        1.8411631384
 H         -5.4363400167        4.1733979084        0.2220949838
 H         -4.1874599100        5.7146104033       -1.2551848572
 H         -1.8909582971        5.2063872704       -1.9390572369
 H         -0.7595091715        3.1549359320       -1.1706400238
 H          0.3454528546        2.2970304373        0.9104366753
 H          4.2300453088        3.1398064958        1.2052685107
 H          6.4498505680        4.2361923247        1.6294020403
 H          8.5239486786        2.9329852778        1.1176375293
