  98
 
 C        -10.5223214159        3.4856467730        1.4872899296
 C        -10.4249040802        2.1397051967        1.1759719630
 C         -9.2017121666        1.5895304880        0.8423729699
 C         -8.0529668598        2.3780086543        0.8094836005
 C         -6.7537733876        1.7947570329        0.4535655588
 C         -6.3851674706        0.5310592126        0.9142049019
 C         -5.1645629978       -0.0194278920        0.5885171384
 C         -4.2711803156        0.6756195825       -0.2291024504
 N         -3.0362514494        0.1349372651       -0.5764494199
 C         -1.9174526583        0.9754367868       -0.6915368306
 C         -1.6836007017        1.9809356895        0.2449815025
 C         -0.5487017394        2.7600813318        0.1579332806
 C          0.3699429915        2.5761784563       -0.8731700759
 C          1.5791640677        3.4096309333       -0.9511417686
 C          1.9394838017        4.0276549168       -2.1453506704
 C          3.0696929693        4.8209427728       -2.2114311651
 C          3.8628385420        4.9979821992       -1.0905724437
 C          3.5139648297        4.3850999181        0.1008377614
 C          2.3786871407        3.5995659742        0.1728692062
 C          0.1155313748        1.5889833907       -1.8229361855
 C         -1.0057189271        0.7915069670       -1.7304353028
 C         -2.8414266083       -1.2458310572       -0.6791938393
 C         -3.8446586191       -2.0765517250       -1.2048152554
 C         -3.6718464043       -3.4415881155       -1.2829786959
 C         -2.4691723026       -4.0000605475       -0.8634686450
 C         -1.9530610402       -5.3355191703       -0.7763256654
 C         -2.4685429883       -6.5852470241       -1.0964254151
 C         -1.6784674957       -7.6988463707       -0.8938028578
 C         -0.3843702944       -7.5800713306       -0.3899043617
 C          0.1524911325       -6.3494462395       -0.0638763715
 C         -0.6423735962       -5.2279202383       -0.2480309081
 N         -0.3507685193       -3.9002160921       -0.0220369559
 C          0.8515071719       -3.3462747179        0.4446137368
 C          1.4259661702       -3.7730580400        1.6331865019
 C          2.5676007802       -3.1497723773        2.1159847656
 C          3.1567707965       -2.0923730855        1.4307950842
 N          4.1989921330       -1.4064264323        1.8947337895
 C          4.7654227395       -0.4126437006        1.2190097325
 C          5.7803882648        0.3823719596        1.9075212049
 C          6.6705583994       -0.2433279859        2.7800424429
 C          7.6080249735        0.5000936961        3.4709199862
 C          7.6641699684        1.8749125765        3.3109672852
 C          6.7666279231        2.5056862130        2.4630057608
 C          5.8278304582        1.7699296629        1.7679629836
 C          4.3209892447       -0.1345304220       -0.0916898994
 C          5.0236366378        0.7415591465       -1.0232206259
 C          6.4150752853        0.8531237262       -1.0330485465
 C          7.0424549118        1.6550212733       -1.9652800932
 C          6.3008361907        2.3410700014       -2.9145030157
 C          4.9225833778        2.2064091051       -2.9348055296
 C          4.2876683328        1.4152543045       -1.9992418843
 N          3.2228174348       -0.7425168289       -0.5339860570
 C          2.5906919247       -1.6857313652        0.1605044417
 C          1.4454526930       -2.3201132518       -0.2943730810
 C         -1.4458312716       -3.1502785649       -0.3826804096
 C         -1.6304533390       -1.7860732931       -0.2584609905
 C         -4.6349259528        1.9415843886       -0.6942069062
 C         -5.8517563948        2.4895790537       -0.3518323410
 C         -8.1640097389        3.7315801565        1.1223647067
 C         -9.3873500561        4.2787870196        1.4602940127
 H        -11.4781638221        3.9144141798        1.7497831859
 H        -11.3075531311        1.5166992343        1.1911877899
 H         -9.1362016540        0.5427262628        0.5832340441
 H         -7.0532519350       -0.0135296308        1.5650857262
 H         -4.8863329684       -0.9878106829        0.9772026822
 H         -2.3893649916        2.1318257985        1.0489456573
 H         -0.3717899233        3.5302211291        0.8945376584
 H          1.3160718367        3.8976546790       -3.0187019181
 H          3.3324800052        5.3070703569       -3.1399101710
 H          4.7489157039        5.6127105944       -1.1447933855
 H          4.1262524912        4.5268791828        0.9798990146
 H          2.1149296368        3.1117377083        1.1006735909
 H          0.8136863580        1.4334174027       -2.6324682598
 H         -1.1866986349        0.0159111356       -2.4603576974
 H         -4.7644009575       -1.6275781733       -1.5486082786
 H         -4.4593482686       -4.0683820700       -1.6728904110
 H         -3.4666292542       -6.6778950778       -1.4976454487
 H         -2.0621678227       -8.6792678522       -1.1341104535
 H          0.2124713415       -8.4698868803       -0.2538937429
 H          1.1600836259       -6.2614389198        0.3133489509
 H          0.9650500467       -4.5688222352        2.1976349109
 H          2.9991138954       -3.4498516053        3.0576978311
 H          6.6190553199       -1.3148952416        2.9009972163
 H          8.2980375361        0.0050823574        4.1387264021
 H          8.3987847142        2.4543096524        3.8503229333
 H          6.7972499103        3.5795399038        2.3481587732
 H          5.1217167082        2.2646370568        1.1176888406
 H          7.0058389720        0.2984674677       -0.3196101670
 H          8.1196879382        1.7360940560       -1.9595869148
 H          6.7972571486        2.9651948756       -3.6426927370
 H          4.3400487806        2.7188845258       -3.6857252350
 H          3.2147048293        1.3067622785       -2.0043931428
 H          1.0346530227       -2.0264039694       -1.2472897033
 H         -0.8648944645       -1.1567445937        0.1680945720
 H         -3.9554788340        2.4856939098       -1.3339821907
 H         -6.1226395922        3.4605022481       -0.7396746969
 H         -7.2797880388        4.3524364246        1.1211790619
 H         -9.4562163983        5.3286099773        1.7064713844
