  45
 
 C          7.9293600530        0.5121047533       -0.3525438399
 O          6.8594898419        1.2005633252        0.2463121732
 C          5.5908885683        0.7350735142        0.0649157283
 C          5.2681970065       -0.4131066066       -0.6847300397
 C          3.9648764165       -0.8079819474       -0.8109575001
 C          2.9169094665       -0.0901515275       -0.2032700350
 C          1.5711555377       -0.4872078889       -0.3201216474
 C          0.5667052919        0.2272657161        0.2920058129
 C         -0.8351587970       -0.1366369743        0.1949215298
 N         -1.8083713344        0.7487473973        0.1136390336
 C         -2.9792638141        0.0845701315        0.0182462898
 C         -4.2354036629        0.8044652955       -0.0974047491
 C         -4.2266184459        2.0907491279       -0.6388756487
 C         -5.3994963384        2.8077241793       -0.7638881472
 C         -6.6012726566        2.2562547211       -0.3485507413
 C         -6.6173103393        0.9886806414        0.2089038633
 C         -5.4453147422        0.2673100714        0.3393065161
 C         -2.7259784481       -1.2918721051        0.0371105520
 C         -3.4912957899       -2.4641999323       -0.0866602643
 C         -2.8831270285       -3.6803343357        0.0044420021
 C         -1.4881889941       -3.7548517630        0.2470132602
 C         -0.7434923867       -2.6253929644        0.3202324833
 N         -1.3371586394       -1.4087216654        0.1655098232
 C          0.8932588998        1.4027431837        1.0107341155
 C          2.1868084764        1.8086211483        1.1362123952
 C          3.2403414736        1.0719782766        0.5467685614
 C          4.5827909448        1.4586360223        0.6660928350
 H          7.8408995212        0.4975883413       -1.4439270364
 H          8.8256168515        1.0645289856       -0.0741454040
 H          8.0099521886       -0.5143196056        0.0206241340
 H          6.0444879089       -0.9887464892       -1.1642801868
 H          3.7261514410       -1.6908378572       -1.3875246585
 H          1.3464028890       -1.3458473633       -0.9376109580
 H         -3.2829862967        2.5076317170       -0.9549983955
 H         -5.3803726204        3.8013145509       -1.1882099509
 H         -7.5201705546        2.8151397585       -0.4498554777
 H         -7.5494090092        0.5619414856        0.5515065773
 H         -5.4662327376       -0.7037645841        0.8105195435
 H         -4.5509622216       -2.3784983068       -0.2628311991
 H         -3.4518304984       -4.5914242975       -0.0914935361
 H         -1.0155016837       -4.7156319776        0.3707303101
 H          0.3160520709       -2.6287232912        0.5203062873
 H          0.0830274794        1.9624713978        1.4511498634
 H          2.4296870028        2.7038730955        1.6898620924
 H          4.8418567097        2.3382746460        1.2348126332
