54

F     -1.317910   -0.000054    2.389477
C     -0.677122   -0.000099    1.211792
C      0.714600   -0.000085    1.209476
C      1.407678   -0.000106   -0.010354
N      2.846620   -0.000038   -0.014925
C      3.536781    1.275272   -0.015491
C      2.807483    2.490167   -0.082405
C      3.432399    3.741291   -0.084990
C      4.812704    3.820834   -0.019806
C      5.558237    2.648250    0.047715
C      4.936585    1.382768    0.050184
S      6.037789    0.000166    0.155358
C      4.936717   -1.382603    0.050998
C      5.558492   -2.648026    0.049274
C      4.813076   -3.820718   -0.017662
C      3.432770   -3.741338   -0.083031
C      2.807731   -2.490274   -0.081168
C      3.536907   -1.275278   -0.014802
C      0.677090   -0.000160   -1.212071
F      1.317880   -0.000208   -2.389753
C     -0.714638   -0.000149   -1.209758
C     -1.407709   -0.000106    0.010078
N     -2.846653   -0.000038    0.014731
C     -3.536927   -1.275289    0.014789
C     -2.807660   -2.490308    0.079884
C     -3.432670   -3.741386    0.081875
C     -4.813046   -3.820764    0.017948
C     -5.558554   -2.648054   -0.047711
C     -4.936804   -1.382616   -0.049592
S     -6.038044    0.000159   -0.152032
C     -4.936674    1.382775   -0.048802
C     -5.558304    2.648270   -0.046250
C     -4.812683    3.820873    0.020005
C     -3.432314    3.741333    0.083844
C     -2.807423    2.490197    0.081173
C     -3.536805    1.275280    0.015492
H      1.253450   -0.000042    2.152234
H      1.722991    2.494494   -0.140854
H      2.834690    4.647532   -0.140620
H      5.310317    4.786707   -0.022057
H      6.643155    2.725632    0.099460
H      6.643411   -2.725273    0.101146
H      5.310778   -4.786546   -0.019315
H      2.835155   -4.647664   -0.138227
H      1.723247   -2.494731   -0.139755
H     -1.253495   -0.000164   -2.152512
H     -1.723108   -2.494777    0.137257
H     -2.834973   -4.647726    0.136018
H     -5.310736   -4.786599    0.019728
H     -6.643532   -2.725298   -0.098418
H     -6.643275    2.725644   -0.096900
H     -5.310279    4.786755    0.022349
H     -2.834528    4.647585    0.138484
H     -1.722870    2.494537    0.138493
