66

Br    -1.525450    2.910738    0.585399
C     -0.696512    1.456545   -0.318080
C      0.702583    1.450489   -0.378060
C      1.392122    0.408472   -1.017340
C      2.860684    0.461806   -1.081417
C      3.628890    0.538671    0.016894
C      5.095382    0.582425   -0.027344
C      5.786160    1.389386   -0.937322
C      7.185257    1.439382   -0.930510
C      7.917425    0.671747   -0.013153
N      9.341344    0.734819   -0.006877
C     10.088599    1.813520   -0.437690
N     11.377207    1.657840   -0.247811
C     11.501568    0.405953    0.287357
C     12.673760   -0.272841    0.656918
C     12.580079   -1.582921    1.134441
C     11.341746   -2.213248    1.227612
C     10.161097   -1.550282    0.868330
C     10.258934   -0.217394    0.429356
C      7.227766   -0.117078    0.913907
C      5.827968   -0.155304    0.907879
C      0.647580   -0.624809   -1.606978
Br     1.473727   -2.089592   -2.497288
C     -0.751833   -0.619198   -1.545891
C     -1.439441    0.417434   -0.897153
C     -2.909139    0.395837   -0.881088
C     -3.608348   -0.595718   -0.305695
C     -5.076729   -0.650411   -0.263691
C     -5.870751    0.496208   -0.151572
C     -7.267208    0.401534   -0.089924
C     -7.894921   -0.847730   -0.119014
N     -9.315950   -0.958770   -0.071638
C    -10.046141   -2.004624   -0.602467
N    -11.342904   -1.828248   -0.510289
C    -11.487179   -0.640655    0.150793
C    -12.673352    0.007081    0.532167
C    -12.595997    1.197527    1.259978
C    -11.358445    1.725585    1.617520
C    -10.164534    1.096220    1.242038
C    -10.248775   -0.077878    0.471383
C     -7.103691   -1.999755   -0.230446
C     -5.708044   -1.898249   -0.290164
H      1.261712    2.269768    0.070974
H      3.295984    0.407071   -2.076201
H      3.185253    0.541188    1.010250
H      5.243663    1.996590   -1.659201
H      7.670329    2.063560   -1.676885
H      9.640440    2.712376   -0.838741
H     13.635827    0.217565    0.553972
H     13.483909   -2.117343    1.416304
H     11.290583   -3.243354    1.575566
H      9.216036   -2.080172    0.910281
H      7.742486   -0.667996    1.695770
H      5.315415   -0.767650    1.647714
H     -1.313389   -1.425704   -2.014928
H     -3.396255    1.240468   -1.361391
H     -3.092939   -1.432192    0.162549
H     -5.416282    1.483932   -0.113051
H     -7.830563    1.329160   -0.075446
H     -9.584707   -2.852031   -1.090585
H    -13.632392   -0.428326    0.272934
H    -13.510256    1.701113    1.564411
H    -11.317196    2.638325    2.208785
H     -9.217736    1.507494    1.573017
H     -7.535434   -2.997369   -0.236452
H     -5.119023   -2.810982   -0.362718
