60

C      3.886427   -3.339398   -2.387774
C      2.803828   -2.504761   -2.628337
C      2.703261   -1.261863   -1.996281
C      3.711940   -0.873338   -1.088602
C      4.826274   -1.686820   -0.868964
C      4.903707   -2.939166   -1.518489
C      5.698534   -1.000041    0.024978
C      6.950588   -1.328014    0.591506
C      7.563037   -0.449854    1.488427
C      6.939578    0.740041    1.837862
C      5.702183    1.088570    1.288429
C      5.101148    0.219454    0.352827
N      3.887550    0.291229   -0.336212
C      2.970945    1.384671   -0.282081
C      3.438201    2.694480   -0.353468
C      2.545560    3.768614   -0.302291
C      1.166248    3.511227   -0.176788
S     -0.091493    4.674240   -0.093485
C     -1.315544    3.481469    0.044805
C     -2.699656    3.703359    0.170595
C     -3.561309    2.605802    0.270811
C     -3.066789    1.303143    0.236548
N     -3.955419    0.182836    0.341719
C     -5.262287    0.110144   -0.163386
C     -5.998655    0.974973   -1.001834
C     -7.313891    0.639492   -1.337499
C     -7.888359   -0.536343   -0.876010
C     -7.147174   -1.418210   -0.087219
C     -5.813894   -1.105542    0.259439
C     -4.808481   -1.812523    0.972751
C     -4.748323   -3.066296    1.610471
C     -3.554145   -3.436597    2.221554
C     -2.486137   -2.558166    2.175457
N     -2.490585   -1.348673    1.579188
C     -3.663870   -1.021450    0.983095
C     -1.681572    1.099783    0.127415
C     -0.780292    2.195138    0.025814
C      0.665654    2.211877   -0.104211
C      1.595236    1.138077   -0.157100
H      3.952338   -4.302002   -2.888210
H      2.027096   -2.815339   -3.323567
H      1.863055   -0.614200   -2.227471
H      5.758094   -3.588844   -1.350938
H      7.434395   -2.267408    0.339243
H      8.524036   -0.708836    1.925301
H      7.413223    1.406492    2.555164
H      5.219179    2.008110    1.604316
H      4.495734    2.909249   -0.492519
H      2.912917    4.789354   -0.368221
H     -3.095565    4.714855    0.206652
H     -4.617349    2.808714    0.430812
H     -5.564254    1.882282   -1.410296
H     -7.889452    1.305856   -1.976377
H     -8.911605   -0.784142   -1.146864
H     -7.593507   -2.352398    0.242654
H     -5.608830   -3.727140    1.627247
H     -3.460840   -4.391986    2.725945
H     -1.543080   -2.822230    2.649204
H     -1.268175    0.095582    0.087309
H      1.220570    0.122471   -0.053043
