49
 xtb: 6.7.1 (edcfbbe)
N            8.38951526086172       -1.09676503954475        0.02818552696215
C            7.43283282415939       -0.46130399783597        0.01117393752293
C            6.26502703978220        0.32760455926050       -0.00784315571004
C            6.35703719254667        1.72259850807865       -0.03595592444413
C            5.21170960817089        2.50045238356341       -0.05440457045973
C            3.95344608507327        1.91601512749859       -0.04473820889333
C            3.83322758537975        0.53201267844801       -0.01665395296203
C            4.99497992416622       -0.26081744784373        0.00095458033956
S            4.65451744657626       -1.97255959007065        0.05786398202147
C            2.93382020482271       -1.65569123559683        0.02317496453491
C            1.92386022817603       -2.61683812045371        0.03845005419967
C            0.61669457120608       -2.20238290519526        0.02958643385274
C            0.28144331338465       -0.82526739102615        0.00626333704813
C           -1.07639102097978       -0.41243119862214       -0.00016963693461
N           -2.07517990709628       -1.32868429239069       -0.00109018631023
C           -3.31987362796238       -0.93203273953391       -0.01177367545996
C           -4.38811428028417       -1.92040858770710       -0.01133291021464
C           -4.08833946858524       -3.28497552152898       -0.01521847454874
C           -5.10552781442662       -4.21744550405289       -0.01343586137922
C           -6.43081846686747       -3.80535823060669       -0.00775541776992
C           -6.73568071160971       -2.45220875665063       -0.00383162235943
C           -5.72381336841636       -1.51282672483596       -0.00572074246193
N           -3.65822768464193        0.37481075322653       -0.02397506040265
C           -2.64749378473499        1.26830438215535       -0.00942685590214
C           -2.98380901885375        2.68564406533623       -0.00141144970982
C           -4.32055416433170        3.09095498176556       -0.05979347397005
C           -4.63794646871396        4.43482395598955       -0.04719714832176
C           -3.63074723773999        5.38956895284252        0.02569573873010
C           -2.30006719558973        4.99389797081439        0.08353733157879
C           -1.97470880499125        3.65279363002497        0.07057304661736
N           -1.39137069677383        0.90811421424762       -0.00075696251993
C            1.31752439361382        0.13238291319145       -0.00987485513911
C            2.63367652882992       -0.27590936265579       -0.00246094340964
H            7.33414332771676        2.18096291078537        0.01145602022304
H            5.30215280454059        3.57518540209924        0.00751172027661
H            3.06609163745893        2.52904605064830        0.00208872077319
H            2.17481628993659       -3.66604427758864       -0.00085888799499
H           -0.18710444558281       -2.92098570520257       -0.00416801075351
H           -3.05304522631209       -3.59027054485241       -0.00543557966941
H           -4.86771944025256       -5.27090423270990        0.00149356799309
H           -7.22420277445130       -4.53763930308960        0.00912095197673
H           -7.76670549392772       -2.13051990121454        0.00968741198026
H           -5.94402506924426       -0.45618111728871        0.00281084073391
H           -5.09198404112335        2.33682496834189       -0.02345276181796
H           -5.67310067286508        4.74144352543685       -0.02167617713513
H           -3.88150925075685        6.43961996949652       -0.00261667555693
H           -1.51621940373961        5.73615624933296        0.01405612842572
H           -0.94525135714470        3.32954103906792        0.01220179404910
H            1.05652729462078        1.17818340064757       -0.00264283031820
