  98
 
 C         -1.9974009997       -6.3545761944        1.7079495411
 O         -2.8864971388       -5.9290415742        0.7008970042
 C         -3.1729463300       -4.6032550934        0.6012286347
 C         -4.0232061901       -4.2367894949       -0.4454409223
 C         -4.3503915867       -2.9169731426       -0.6603614255
 C         -3.8450156823       -1.9177803563        0.1743574244
 N         -4.1188690776       -0.5662646583       -0.0737140591
 C         -5.3788172289       -0.1920501481       -0.5472142385
 C         -5.5139202200        0.8082488613       -1.5070754968
 C         -6.7604085885        1.1815007723       -1.9742509734
 C         -7.9045855395        0.5514811535       -1.4956454023
 O         -9.1777701502        0.8352726547       -1.8865037655
 C         -9.3779211027        1.8490182631       -2.8408533813
 C         -7.7709660119       -0.4586628018       -0.5392279448
 C         -6.5304843194       -0.8231187648       -0.0700310905
 C         -3.1045629568        0.3731031188        0.1014760179
 C         -3.4041189380        1.6923052413        0.4888080799
 C         -2.4000400550        2.6218714309        0.7239010124
 C         -1.0805927369        2.2225675914        0.5913251523
 C         -0.7689215557        0.8997579935        0.1609342202
 C         -1.7795971872       -0.0149342054       -0.0947723623
 C          0.6473811974        0.8025786686        0.1325003866
 C          1.5113630693       -0.2547688917       -0.1149009653
 C          2.8753359553       -0.0708601997        0.1016744747
 N          3.7324668278       -1.1629464327       -0.0529785104
 C          3.2460425458       -2.4351798104        0.2731744989
 C          2.4294422080       -2.6051514250        1.3953633665
 C          1.8834048421       -3.8340676754        1.6831700643
 C          2.1426995910       -4.9377546905        0.8672254217
 O          1.5238312782       -6.1000970347        1.2280780297
 C          1.7506342565       -7.2507940979        0.4504524910
 C          2.9846658352       -4.7832491323       -0.2280539207
 C          3.5263855965       -3.5431674136       -0.5205152672
 C          5.0222058884       -1.0070690760       -0.5594007647
 C          5.3008669132       -0.0304045205       -1.5130629667
 C          6.5789007688        0.1309880185       -2.0143397658
 C          7.6112250885       -0.6928766961       -1.5780274783
 O          8.9028735739       -0.6265832839       -2.0065985296
 C          9.2460419327        0.3546014588       -2.9541078060
 C          7.3336446469       -1.6776750103       -0.6266658010
 C          6.0632192252       -1.8307784361       -0.1221268278
 C          3.3670167780        1.1796486897        0.5141154311
 C          2.5140870010        2.2531676546        0.7313245662
 C          1.1553807128        2.0685012467        0.5424317829
 N          0.0937524801        2.9202212735        0.7856315093
 C          0.1789468355        4.2287325336        1.2550905975
 C         -0.5413635174        4.5686520319        2.4159219852
 C         -0.4366471397        5.8269088023        2.9612257050
 C          0.3649250383        6.7910565849        2.3574068997
 C          1.0708290581        6.5041648890        1.1723280593
 C          1.8487859472        7.4821672941        0.5281880336
 C          2.4907146422        7.2115172572       -0.6686416509
 C          2.3575769453        5.9657803112       -1.2568914001
 C          1.6089310914        4.9734210864       -0.6386687060
 C          0.9776181923        5.2055521025        0.5907514807
 C         -3.0317870892       -2.2910310738        1.2429180566
 C         -2.6889413321       -3.6134059821        1.4514816599
 H         -1.9255909770       -7.4352765206        1.5952203414
 H         -2.3814814171       -6.1238899463        2.7066448317
 H         -1.0039664110       -5.9118857340        1.5859804750
 H         -4.4010734325       -5.0116333315       -1.0932729480
 H         -4.9873597595       -2.6470817561       -1.4892766498
 H         -4.6313846396        1.2933477536       -1.8960883513
 H         -6.8228121311        1.9591975111       -2.7187348360
 H        -10.4551078846        1.9052060526       -2.9893969877
 H         -8.8945181001        1.6067928755       -3.7929680604
 H         -9.0116480972        2.8167239158       -2.4830409516
 H         -8.6646680035       -0.9381635060       -0.1732323409
 H         -6.4408468789       -1.5974631782        0.6769722105
 H         -4.4347727273        1.9773561330        0.6296989978
 H         -2.6544366832        3.6270140352        1.0215907201
 H         -1.5404629724       -1.0081100884       -0.4405970335
 H          1.1284224474       -1.2062136311       -0.4491103929
 H          2.2220395288       -1.7594594075        2.0329305620
 H          1.2491465050       -3.9686543072        2.5449880468
 H          1.1765719499       -8.0449980573        0.9251424453
 H          1.3995204677       -7.1157331625       -0.5776041644
 H          2.8096802068       -7.5268357926        0.4409700979
 H          3.2156367821       -5.6147744603       -0.8746854887
 H          4.1609274585       -3.4305649488       -1.3870049326
 H          4.5048362821        0.6057059477       -1.8694019869
 H          6.7525114738        0.8985168083       -2.7516655965
 H          9.0607675475        1.3641831793       -2.5733000886
 H          8.7013943585        0.2149305167       -3.8937236882
 H         10.3123271144        0.2290294432       -3.1353998826
 H          8.1421607269       -2.3074251876       -0.2912644970
 H          5.8658974414       -2.5862006697        0.6236258497
 H          4.4238865845        1.2929474395        0.6978226686
 H          2.9065160323        3.1991963670        1.0701858622
 H         -1.1240818522        3.8026690196        2.9063842369
 H         -0.9678688999        6.0637328326        3.8716573689
 H          0.4446134185        7.7781511258        2.7875229099
 H          1.9284718772        8.4609608119        0.9790364378
 H          3.0862621926        7.9766675625       -1.1458677565
 H          2.8403147029        5.7561411492       -2.2007830588
 H          1.5084380156        4.0117958652       -1.1203366027
 H         -2.6547674295       -1.5326482308        1.9124410942
 H         -2.0441594298       -3.8587251081        2.2799817906
