  69
 
 C          7.5048265882        2.8245084558        2.3521027682
 C          6.1227091936        2.8704118753        2.3769104847
 C          5.3786410375        2.0535755967        1.5431880067
 C          6.0079391320        1.1786965140        0.6629240518
 C          7.4112208796        1.1227204782        0.6615272010
 C          8.1478875452        1.9439229803        1.4965740899
 O          8.1069640060        0.2599611741       -0.1430346612
 C          7.3860279536       -0.5588132061       -0.9709662507
 C          8.0963447134       -1.4268133294       -1.7811919406
 C          7.4268178577       -2.2686690223       -2.6552891731
 C          6.0459284610       -2.2290413753       -2.7239324525
 C          5.3280205622       -1.3636831240       -1.9167676410
 C          5.9830535853       -0.5270110795       -1.0181152224
 N          5.2928819311        0.3478940042       -0.1895345346
 C          3.8756596522        0.3836237600       -0.2103284050
 C          3.2220589665        1.4792553596       -0.7552045622
 C          1.8324707025        1.5917854865       -0.8093401153
 C          1.0679344877        0.5555888054       -0.2929056990
 C          1.7445441737       -0.5637236221        0.2642929608
 C          0.8387100810       -1.5302843359        0.7510446724
 C          1.3341703545       -2.6786138442        1.3321242457
 C          2.7253440902       -2.8261475628        1.4151540834
 C          3.6097381126       -1.8811372381        0.9387904824
 C          3.1300393787       -0.6997366461        0.3328865278
 C         -0.4830518870       -1.0034806879        0.4892111630
 N         -1.6626896346       -1.4872920223        0.7352685659
 C         -2.7617977030       -0.7920954424        0.3944168122
 C         -4.0397292825       -1.2736462811        0.6490899807
 C         -5.1790932743       -0.5564633842        0.3047442948
 C         -6.4957306669       -1.0971788530        0.6636550144
 C         -6.8154897692       -2.4320413604        0.4145755424
 C         -8.0660895780       -2.8985920364        0.7792591046
 N         -8.9856690390       -2.1489003703        1.3638002125
 C         -8.6804183583       -0.8864572168        1.6149552985
 C         -7.4635934155       -0.3127179760        1.2921103988
 C         -5.0388863980        0.6885792273       -0.3388431974
 C         -6.2092361905        1.4503316409       -0.8008300306
 C         -7.2204996630        0.8478731809       -1.5482271033
 C         -8.2880890424        1.6216710493       -1.9687477635
 N         -8.4072606072        2.9116185706       -1.7023373282
 C         -7.4444062296        3.4875745788       -1.0027523217
 C         -6.3297011035        2.8132589095       -0.5346968100
 C         -3.7752493550        1.1929639337       -0.5961911420
 C         -2.6142564134        0.4968970084       -0.2479135218
 N         -1.4000245907        0.9793847275       -0.4942487084
 C         -0.3258840360        0.2900528794       -0.1566331770
 H          8.0857976431        3.4628226238        2.9985190158
 H          5.6130382116        3.5428845159        3.0492154054
 H          4.3010837061        2.0864052410        1.5736375321
 H          9.2233289278        1.8751333372        1.4634226328
 H          9.1723969841       -1.4250024499       -1.7140025735
 H          7.9871522925       -2.9441018905       -3.2819160443
 H          5.5169041634       -2.8716962032       -3.4102422668
 H          4.2520576315       -1.3311343352       -1.9810744988
 H          3.8262460257        2.2805202379       -1.1580367163
 H          1.3738181035        2.4637026277       -1.2478213276
 H          0.6779584189       -3.4441385495        1.7159137591
 H          3.1194900984       -3.7216375858        1.8735898430
 H          4.6733592519       -2.0472317392        1.0296579192
 H         -4.1298215663       -2.2218098896        1.1570906107
 H         -6.1056972405       -3.0823563895       -0.0743130350
 H         -8.3516601954       -3.9261947159        0.5935118265
 H         -9.4542863670       -0.3072410012        2.1017959152
 H         -7.2627939019        0.7194239453        1.5354858530
 H         -7.1663879665       -0.1993479883       -1.8037153761
 H         -9.0919862791        1.1886358559       -2.5496370333
 H         -7.5771886278        4.5442222330       -0.8084678708
 H         -5.5759742836        3.3263160890        0.0435451742
 H         -3.6613516721        2.1372065245       -1.1065659569
