  94
 
 C         -3.5912358478        5.2080147742        2.2835804372
 C         -3.3034928535        3.9017976341        1.6060093574
 C         -4.2939224663        3.2161894386        0.9135670414
 C         -4.0258310340        2.0235700021        0.2702829918
 C         -2.7491451106        1.4633297365        0.3147857045
 N         -2.4418045645        0.2433224599       -0.3208394886
 C         -3.5052711511       -0.6310057125       -0.5947594033
 C         -3.6710427113       -1.2406449890       -1.8362811201
 C         -4.7044826778       -2.1356271803       -2.0460152205
 C         -5.6054647161       -2.4488369408       -1.0381003114
 C         -6.7394382632       -3.4003872214       -1.2763111939
 C         -5.4376661204       -1.8365994028        0.2003629481
 C         -4.4066842454       -0.9490703177        0.4246072816
 C         -1.3606257818        0.2813992658       -1.2603256800
 C         -1.4735016218        1.2411264595       -2.2664275571
 C         -0.5408510804        1.3541235116       -3.2763855326
 C          0.5242733392        0.4747451280       -3.2917608075
 C          0.6557684484       -0.4655110803       -2.2864673355
 C         -0.2522174189       -0.5849731846       -1.2368845472
 C          0.0031249836       -1.5930841059       -0.1074697137
 C          0.3134283285       -0.7386242698        1.1268081140
 C         -0.5287438380       -0.7639209005        2.2369822587
 C         -0.3401775683        0.0365346581        3.3484489084
 C          0.7125713482        0.9308292204        3.3805621209
 C          1.5659749040        0.9802458058        2.2979501927
 C          1.3982021566        0.1572973018        1.1835370445
 N          2.3964927720        0.2968021000        0.1642128975
 C          2.5981577375        1.5929608067       -0.3395248688
 C          1.5010724940        2.3766754295       -0.6898624789
 C          1.6700012102        3.6528391677       -1.1873475197
 C          2.9357622801        4.1975813708       -1.3617724945
 C          3.1192990837        5.5716684089       -1.9332017924
 C          4.0291857645        3.4190841966       -1.0027364183
 C          3.8705651263        2.1458605817       -0.4920432392
 C          3.5121391588       -0.5579486364        0.2328314381
 C          3.8928728762       -1.1943622752        1.4119402751
 C          4.9818710303       -2.0475128780        1.4275593860
 C          5.7242556542       -2.2922539233        0.2806660546
 C          6.9152005619       -3.2020810326        0.3115678153
 C          5.3461973115       -1.6478554119       -0.8933526770
 C          4.2612044094       -0.7973135387       -0.9228270590
 C         -1.2378476496       -2.5153306295       -0.0059940065
 C         -0.9643505402       -3.9238680539        0.5431615817
 C          0.2043172452       -3.9357553205        1.5168201609
 C          1.4704758978       -3.4688870340        0.7958869858
 C          1.1670782032       -2.5576349933       -0.3984633410
 C         -1.7537930895        2.1519042827        1.0030573627
 C         -2.0283951567        3.3501371957        1.6310935670
 H         -4.6495306965        5.2997621910        2.5167226774
 H         -3.3142062770        6.0374675142        1.6312124911
 H         -3.0164973056        5.2996100599        3.2029350399
 H         -5.2931658464        3.6265425494        0.8643823817
 H         -4.8134037406        1.5246301863       -0.2764427289
 H         -2.9885598388       -1.0131463671       -2.6424981076
 H         -4.8115869521       -2.5942866584       -3.0193185885
 H         -6.9308052488       -4.0028751126       -0.3904819119
 H         -6.5222623302       -4.0608103991       -2.1125489524
 H         -7.6509393422       -2.8473662261       -1.5084008880
 H         -6.1221838029       -2.0662944137        1.0050699110
 H         -4.2853983656       -0.4909538244        1.3960408856
 H         -2.3301361277        1.9015371826       -2.2443872874
 H         -0.6542245699        2.1058974543       -4.0430189847
 H          1.2606268123        0.5218761745       -4.0803924354
 H          1.5050205723       -1.1246018613       -2.3321697107
 H         -1.3766270803       -1.4273071526        2.2496080114
 H         -1.0255823114       -0.0332500213        4.1801130699
 H          0.8717821854        1.5753642443        4.2321474754
 H          2.4010982325        1.6683747537        2.2982375795
 H          0.5078264179        1.9790202060       -0.5755426580
 H          0.7953388354        4.2328203882       -1.4468360362
 H          3.2271888167        5.5143824493       -3.0174940881
 H          2.2590468188        6.2000061060       -1.7133455915
 H          4.0141882095        6.0423410605       -1.5313925174
 H          5.0276191958        3.8207167670       -1.1094282312
 H          4.7442194870        1.5827588427       -0.1974168635
 H          3.3419051293       -1.0106817044        2.3231966161
 H          5.2595043409       -2.5283385503        2.3552611693
 H          6.7750394836       -3.9982617164        1.0394737827
 H          7.8076824684       -2.6413925279        0.5937591304
 H          7.0905624922       -3.6434529373       -0.6669375440
 H          5.9078296664       -1.8201863359       -1.8007717176
 H          3.9776846648       -0.3060986900       -1.8426280361
 H         -2.0210920289       -2.0476731911        0.5796402545
 H         -1.6347675762       -2.6246926312       -1.0178085728
 H         -1.8686312665       -4.2953100937        1.0303455094
 H         -0.7377990544       -4.6077267777       -0.2776892496
 H         -0.0120788371       -3.2764188244        2.3572784567
 H          0.3476402428       -4.9413735477        1.9175620020
 H          2.1173101256       -2.9409367616        1.4978151599
 H          2.0323118371       -4.3299084337        0.4263229894
 H          2.0829553713       -2.0312054905       -0.6429447028
 H          0.8878674342       -3.1651986597       -1.2618342341
 H         -0.7622879794        1.7366092356        1.0567318369
 H         -1.2339870797        3.8610806407        2.1567450894
