  104
 
 C         13.3661738827       -2.3732882592       -4.3343345046
 O         12.0896571797       -2.7802429292       -3.9089415991
 C         11.4463975396       -2.0278906336       -2.9701604296
 C         11.9508489004       -0.8707092584       -2.3879812059
 C         11.2063470342       -0.1858524196       -1.4441906490
 C          9.9525584265       -0.6421943649       -1.0517356041
 N          9.2116642755        0.0447777365       -0.0794833830
 C          9.8736949564        0.6142786775        1.0178136973
 C         10.9452155866       -0.0372572044        1.6190241268
 C         11.6144365138        0.5295066099        2.6890369240
 C         11.2142581422        1.7633567487        3.1890801236
 O         11.7973696480        2.4134482319        4.2370302108
 C         12.8887863509        1.8040810382        4.8802318452
 C         10.1348859710        2.4167370582        2.5912344910
 C          9.4784427118        1.8556872152        1.5199436986
 C          7.8303877387        0.1593691424       -0.2004680680
 C          7.2322943152        0.2913847245       -1.4563189599
 C          5.8652528795        0.4169948423       -1.5705903437
 C          5.0441826695        0.3961673649       -0.4430638511
 C          3.5901613176        0.5245304148       -0.5656740006
 C          3.0209524340        1.4222456759       -1.4727765159
 C          1.6516949797        1.5486216415       -1.5705758145
 C          0.8009677061        0.7748044536       -0.7821395156
 C          1.3598741193       -0.1416110129        0.1196695995
 C          2.7402757214       -0.2473919594        0.2229838920
 C          0.5184938645       -1.0166915479        0.9669196745
 O          1.0049432584       -1.8032351276        1.7614230060
 C         -0.9369402981       -0.8814997484        0.7883835488
 C         -1.7897101541       -1.7082004486        1.5188921077
 C         -3.1582079599       -1.6117155077        1.3881445426
 C         -3.7312594936       -0.6699424519        0.5268604697
 C         -5.1830173495       -0.5492263669        0.3934006106
 C         -5.7661731956       -0.1789885586       -0.8209441928
 C         -7.1314403291       -0.0617586174       -0.9502169705
 C         -7.9738568561       -0.3070187490        0.1379085477
 N         -9.3521838124       -0.1828800538        0.0118713402
 C        -10.2087989374       -1.0304810797        0.7287795942
 C         -9.8912196607       -2.3787220414        0.9044380023
 C        -10.7378483219       -3.2103478739        1.6007812593
 C        -11.9344787014       -2.7272227766        2.1339273714
 O        -12.7018064962       -3.6391406762        2.7970153074
 C        -13.9236637056       -3.2135910038        3.3470714628
 C        -12.2572522261       -1.3867321047        1.9563126691
 C        -11.3984480866       -0.5503507204        1.2658594598
 C         -9.8990884262        0.7982732104       -0.8286979214
 C         -9.3263018031        2.0633741262       -0.9086223151
 C         -9.8631722953        3.0380930481       -1.7301223679
 C        -10.9998168133        2.7678212304       -2.4836545403
 O        -11.6175995837        3.6526238092       -3.3173659797
 C        -11.0791554182        4.9459296070       -3.4394836140
 C        -11.5793775696        1.5000855904       -2.4013834543
 C        -11.0362702923        0.5287748573       -1.5916853986
 C         -7.3964825311       -0.6771598225        1.3556748500
 C         -6.0302719897       -0.7965852367        1.4759535164
 C         -2.8762084490        0.1544000392       -0.2035471202
 C         -1.4964575561        0.0559912316       -0.0910421894
 C         -0.6556100831        0.9495377658       -0.9186068708
 O         -1.1421049137        1.7738103076       -1.6739038882
 C          5.6441219007        0.2517604134        0.8083151788
 C          7.0116155440        0.1452468774        0.9318512401
 C          9.4519260174       -1.8076600687       -1.6353441564
 C         10.1851311044       -2.4845541970       -2.5827717338
 H         13.3381511911       -1.3858838776       -4.8070199840
 H         14.0816737204       -2.3587614130       -3.5053639064
 H         13.6822610569       -3.1132684924       -5.0679873866
 H         12.9193477392       -0.4844095096       -2.6637643885
 H         11.6052346578        0.7159787983       -1.0036608963
 H         11.2600701254       -0.9997031176        1.2435497287
 H         12.4410161336       -0.0077437997        3.1264899563
 H         12.6096199778        0.8432096213        5.3250528204
 H         13.1870191583        2.4918427365        5.6700223969
 H         13.7295994052        1.6560925042        4.1943056529
 H          9.8354395390        3.3755334693        2.9834940719
 H          8.6524700622        2.3773006110        1.0599883531
 H          7.8529201701        0.3023821134       -2.3401135094
 H          5.4226262084        0.5117699614       -2.5513069038
 H          3.6629139208        2.0393036312       -2.0840892541
 H          1.2061104720        2.2519560483       -2.2588068713
 H          3.1417161001       -0.9690978723        0.9194991130
 H         -1.3456244249       -2.4322495682        2.1863005273
 H         -3.7944506864       -2.2842392100        1.9437690013
 H         -5.1411563007       -0.0141513098       -1.6854890404
 H         -7.5636441355        0.2104215398       -1.9017730240
 H         -8.9756585735       -2.7688259903        0.4856285564
 H        -10.4996380027       -4.2529389834        1.7389225721
 H        -14.3603690799       -4.0957093798        3.8127561229
 H        -13.7757814778       -2.4399516013        4.1078291294
 H        -14.6041067184       -2.8386822246        2.5753223067
 H        -13.1709449097       -0.9756703936        2.3554493225
 H        -11.6567956800        0.4906364239        1.1397138906
 H         -8.4497723167        2.2888283210       -0.3192675011
 H         -9.3883629536        4.0057828402       -1.7639702014
 H        -11.0889287861        5.4784493521       -2.4826588207
 H        -10.0569557389        4.9216674153       -3.8311352160
 H        -11.7222083196        5.4673731736       -4.1467521119
 H        -12.4577421915        1.2993895628       -2.9938615436
 H        -11.4895457952       -0.4499434632       -1.5428319976
 H         -8.0327537418       -0.8562896123        2.2097794525
 H         -5.6096345661       -1.0494725831        2.4377735503
 H         -3.2708175490        0.9093564129       -0.8675179281
 H          5.0289146643        0.2421812625        1.6956808123
 H          7.4605283550        0.0410920615        1.9084819647
 H          8.4833318860       -2.1791270434       -1.3359934557
 H          9.8051430234       -3.3859982842       -3.0364435721
