  106
 
 C         -1.8790540054       -1.7859869165       -1.1823822548
 C         -2.7166678872       -0.6785283312       -0.7626623526
 C         -4.1033141157       -0.9024993864       -0.5241929871
 C         -5.0602140688        0.1290786580       -0.6387845443
 C         -6.3986634594       -0.1163358816       -0.4589050344
 C         -6.8504646150       -1.4023758017       -0.1499282623
 N         -8.2142125693       -1.6493647006        0.0275922368
 C         -8.7825148365       -2.3333981884        1.0845144418
 C         -8.1820402912       -2.8738124122        2.2129639627
 C         -8.9961752035       -3.4873978247        3.1457891293
 C        -10.3766841007       -3.5573002969        2.9732049693
 C        -10.9828333500       -2.9980596122        1.8655596963
 C        -10.1856324054       -2.3768921229        0.9140666204
 C        -10.4689348204       -1.6882726097       -0.3144176778
 C        -11.6395388989       -1.4240728135       -1.0121330657
 C        -11.5560403852       -0.7427231480       -2.2103487085
 C        -10.3237385727       -0.3423636382       -2.7217928668
 C         -9.1452146911       -0.5937464388       -2.0455805882
 C         -9.2249523753       -1.2533267670       -0.8270855340
 C         -5.9199131662       -2.4396363235       -0.0371856889
 C         -4.5826825507       -2.1970461408       -0.2266026321
 C         -2.1072081151        0.6142105475       -0.6376580187
 C         -0.9885005760        0.9587930119       -1.4258109983
 C         -0.2954895035        2.1232727949       -1.2137828893
 C         -0.6761977173        2.9965010032       -0.1922806065
 N          0.0951356562        4.1276201362        0.0814832420
 C          1.4686215101        4.1305427691        0.2342845747
 C          2.3636735437        3.0700431908        0.2006733816
 C          3.7000172757        3.3476516396        0.4162489318
 C          4.1422265803        4.6438955059        0.6709081119
 C          3.2526798517        5.6981456808        0.7338142932
 C          1.9045669996        5.4447706820        0.5197073547
 C          0.7287540686        6.2703711882        0.5337567425
 C          0.5174709502        7.6275635872        0.7339292711
 C         -0.7722224454        8.1150021176        0.6548269362
 C         -1.8410124974        7.2702038128        0.3641836455
 C         -1.6558516413        5.9161118801        0.1602362418
 C         -0.3656150699        5.4161258975        0.2638956236
 C         -1.8114048080        2.6987301693        0.5664569242
 C         -2.5178373276        1.5419693676        0.3404638056
 C         -0.5491915738       -1.9537058447       -0.8217323966
 C          0.2808516531       -2.8803898404       -1.5179993353
 C          1.6291737590       -2.9217973178       -1.3129938822
 C          2.2583288669       -2.0711563345       -0.3813169773
 C          3.7038923079       -2.0371724248       -0.2369421526
 C          4.3534509172       -0.8492892546        0.1221248381
 C          5.7248301221       -0.7872426283        0.2273214605
 C          6.5010466522       -1.9174482761       -0.0238907232
 N          7.8958215875       -1.8491809197        0.0601853167
 C          8.7129957515       -2.7283195933        0.7432596276
 C          8.3748143205       -3.8140451792        1.5385225543
 C          9.4008439504       -4.5186311203        2.1385839883
 C         10.7338261418       -4.1530143701        1.9649829289
 C         11.0749858686       -3.0578982150        1.1965082678
 C         10.0614468890       -2.3341801148        0.5829857838
 C         10.0481874833       -1.1608265789       -0.2452510444
 C         11.0462475730       -0.3433245821       -0.7583628853
 C         10.6833901485        0.7178796839       -1.5635869882
 C          9.3463283112        0.9580553232       -1.8719205174
 C          8.3356073286        0.1583366264       -1.3737698655
 C          8.6918948498       -0.8942073624       -0.5424710777
 C          5.8688991334       -3.1109710920       -0.3686673933
 C          4.4962990723       -3.1666551227       -0.4727835174
 C          1.4309533534       -1.2429409753        0.4004674167
 C          0.0812889484       -1.1924558318        0.2084462816
 H         -2.3098569879       -2.4937085319       -1.8794898793
 H         -4.7351834257        1.1218773487       -0.9107127223
 H         -7.1139384350        0.6886785416       -0.5427223124
 H         -7.1155711832       -2.8076640521        2.3663642657
 H         -8.5521698920       -3.9186716304        4.0308846877
 H        -10.9782519665       -4.0476997986        3.7239825021
 H        -12.0544411192       -3.0360437927        1.7402842506
 H        -12.5925119860       -1.7514352236       -0.6246529810
 H        -12.4548202376       -0.5245493646       -2.7676983702
 H        -10.2877396305        0.1724343173       -3.6706063524
 H         -8.1942204750       -0.2972623225       -2.4614208762
 H         -6.2672194843       -3.4395184114        0.1779358494
 H         -3.8728696531       -3.0053479289       -0.1295976712
 H         -0.6901428449        0.3015588152       -2.2283118371
 H          0.5455308403        2.3780133367       -1.8413938876
 H          2.0254935836        2.0600389323        0.0215525941
 H          4.4197630627        2.5425447394        0.3895100760
 H          5.1955373824        4.8198337646        0.8309685644
 H          3.5931396516        6.6995505499        0.9497634070
 H          1.3478394156        8.2853419185        0.9419547910
 H         -0.9585761445        9.1672554812        0.8097617773
 H         -2.8362676673        7.6834547994        0.2921811127
 H         -2.4877831099        5.2733389082       -0.0845781024
 H         -2.1021211566        3.3632602061        1.3667436199
 H         -3.3526592999        1.2966823892        0.9802162507
 H         -0.1741920354       -3.5173556837       -2.2634071210
 H          2.2340334791       -3.5898901863       -1.9084000478
 H          3.7719471185        0.0428956878        0.2981297598
 H          6.2087585064        0.1342073164        0.5160030972
 H          7.3441391181       -4.0940914293        1.6958621428
 H          9.1633858677       -5.3698140427        2.7596298858
 H         11.5069236578       -4.7314283136        2.4485593987
 H         12.1066410596       -2.7634932083        1.0759158797
 H         12.0835463545       -0.5407362817       -0.5335704616
 H         11.4437711760        1.3675029763       -1.9709118355
 H          9.0935691230        1.7855422945       -2.5184504613
 H          7.3046899748        0.3418118767       -1.6364418298
 H          6.4654309072       -3.9878097550       -0.5725760501
 H          4.0272117673       -4.1054891064       -0.7258847896
 H          1.8722491957       -0.6592186345        1.1957123138
 H         -0.5301527548       -0.5861152362        0.8583889880
