  45
 
 C          4.2972768354        2.5555947692       -1.4283637979
 C          3.4315131519        2.8073879158       -0.3703452918
 C          3.0491697242        1.7804580527        0.4708259842
 C          3.5476752241        0.5023579443        0.2539466339
 C          4.4103728918        0.2401534700       -0.8018987205
 C          4.7884884645        1.2723480903       -1.6387177129
 S          2.9361641729       -0.8493122236        1.2387913625
 O          3.9189496013       -1.9169819427        1.2565305984
 O          2.4962663175       -0.3341566979        2.5242102081
 C          1.5212405997       -1.3593749222        0.3086474345
 C          1.6380063579       -2.3434959172       -0.7008777929
 C          0.5376193397       -2.6348159892       -1.4794223425
 C         -0.6659507510       -1.9697496619       -1.3033525945
 C         -0.7681171177       -0.9590916205       -0.3009309801
 C          0.3401516491       -0.6646097207        0.4860324551
 N         -1.9502402165       -0.2667931467       -0.1222749449
 C         -2.0472607762        1.0996732172        0.0623561874
 C         -1.0546052497        2.0655414019        0.0041190277
 C         -1.4264854186        3.3932617822        0.2127259936
 C         -2.7549858439        3.7327398694        0.4547894350
 C         -3.7633726018        2.7754012205        0.4673183802
 C         -3.4182032236        1.4443691741        0.2530842862
 C         -4.1632141668        0.2270628549        0.1610456239
 C         -5.5150236646       -0.0867486432        0.2596856617
 C         -5.8968820468       -1.4197611313        0.1561836433
 C         -4.9633264023       -2.4352949718       -0.0340590545
 C         -3.6038129482       -2.1456177981       -0.1404068427
 C         -3.2167558262       -0.8163156085       -0.0689894598
 H          4.5926484564        3.3594578146       -2.0851472350
 H          3.0590697522        3.8070307464       -0.2034243860
 H          2.3914273345        1.9438197686        1.3106214135
 H          4.7807879681       -0.7648753970       -0.9306472425
 H          5.4668410957        1.0801827353       -2.4564902634
 H          2.5795121028       -2.8539941847       -0.8133890398
 H          0.6161059355       -3.3838512441       -2.2532228426
 H         -1.4965814424       -2.1406280800       -1.9669874671
 H          0.2732178124        0.0395084936        1.3007721948
 H         -0.0292440981        1.8075270056       -0.2103044968
 H         -0.6738228805        4.1643251347        0.1785855138
 H         -3.0099187095        4.7692287407        0.6195366140
 H         -4.7906916600        3.0571948920        0.6347242128
 H         -6.2485321091        0.6872625747        0.4202263178
 H         -6.9427554255       -1.6766192288        0.2373530079
 H         -5.2910866456       -3.4610532978       -0.0888718064
 H         -2.8793500159       -2.9365791267       -0.2522815674
