  50
 
 C          5.2943864202        2.7937642090       -1.1435544348
 C          3.9444820559        3.0461181462       -1.3726239655
 C          2.9720476676        2.1111819074       -1.0521138789
 C          3.3836980239        0.9166671948       -0.4796151622
 C          4.7590344097        0.6354706998       -0.2849483734
 C          5.7157951431        1.5865787566       -0.6121533723
 C          4.8350563283       -0.7031293199        0.2320662757
 C          5.8899907163       -1.5093859181        0.6364901735
 C          5.6071903677       -2.7700339064        1.1347036986
 C          4.2942429460       -3.2180912569        1.2519469096
 C          3.2251904155       -2.4282204733        0.8577778034
 C          3.5030475208       -1.1794274250        0.3214987763
 N          2.6338985771       -0.1884991403       -0.1075885690
 C          1.2537623552       -0.2786625506       -0.1466987770
 C          0.6513302069       -1.4665082451       -0.6636230350
 C         -0.7195689784       -1.5861847991       -0.7329677178
 C         -1.5113147690       -0.5472406896       -0.2673673943
 C         -0.9055658500        0.6845187556        0.2702928568
 C          0.4744781476        0.7850442309        0.3030974160
 C         -1.9728495467        1.5503955994        0.6760865564
 C         -2.2467945308        2.8131150855        1.2383078574
 C         -3.5920901926        3.1725317823        1.4151540980
 C         -4.6947830521        2.3940087834        1.0843026490
 C         -4.4579859990        1.1178126552        0.5141865602
 C         -5.1183358431       -0.0572745460        0.0054523473
 C         -6.4508010563       -0.4248921875       -0.1340236157
 C         -6.7604637338       -1.6629818816       -0.6726568374
 C         -5.7639234028       -2.5524418379       -1.0793109424
 C         -4.4218695777       -2.2218755776       -0.9558140393
 C         -4.0958675051       -0.9903486377       -0.4202935344
 N         -2.8646598586       -0.4076431945       -0.1855745919
 C         -3.1148155656        0.8272239321        0.3655769803
 H          6.0234575722        3.5477108397       -1.4010290176
 H          3.6466425108        3.9850966576       -1.8141599184
 H          1.9317886450        2.3079772719       -1.2597128144
 H          6.7649183122        1.3834127635       -0.4619427624
 H          6.9072658540       -1.1553847247        0.5700715560
 H          6.4151808104       -3.4127085951        1.4514511826
 H          4.1019904628       -4.1963769016        1.6659849667
 H          2.2111432362       -2.7737015440        0.9835447990
 H          1.2862113035       -2.2355692603       -1.0709003778
 H         -1.1664437475       -2.4728963680       -1.1560886834
 H          0.9441905416        1.6565846130        0.7330539787
 H         -1.4626377300        3.4923648967        1.5339915806
 H         -3.7849248774        4.1444611838        1.8519231292
 H         -5.6940678709        2.7602478870        1.2616406557
 H         -7.2348418916        0.2509711227        0.1752943232
 H         -7.7962967104       -1.9502699124       -0.7820336998
 H         -6.0412828355       -3.5092642061       -1.4947175924
 H         -3.6541080166       -2.9129019885       -1.2704265304
