  80
 
 O          2.2745355030        1.3877417060        3.0716839157
 C          2.3258663622        0.5975312770        2.1010889182
 C          1.1670435095       -0.1192478686        1.6208274894
 C          1.2541058638       -1.3002303724        0.8538653211
 C          0.1253535571       -1.9449493291        0.4316968061
 C         -1.1624793353       -1.4402855804        0.7139142843
 C         -2.3206724471       -2.1475890095        0.2180626389
 O         -2.2675157870       -3.3382356369       -0.1675708596
 C         -3.6129592749       -1.4338223723        0.1291934142
 C         -4.8019472728       -2.1537375746        0.2986365279
 C         -6.0269426068       -1.5425878481        0.1702238845
 C         -6.1054073637       -0.1852812674       -0.1654169970
 N         -7.3434300733        0.4418770878       -0.3099924619
 C         -8.4133323688       -0.2505004526       -0.8800178135
 C         -9.7165685523       -0.0411235026       -0.4195263726
 C        -10.7705991921       -0.7289302184       -0.9869534479
 C        -10.5471695183       -1.6326511841       -2.0152751750
 C         -9.2558009800       -1.8452127802       -2.4747911657
 C         -8.1935905735       -1.1620957032       -1.9167914069
 C         -7.5036823043        1.7667180793        0.1020659068
 C         -8.3121014444        2.6428654924       -0.6274822908
 C         -8.4640286797        3.9514318923       -0.2138701553
 C         -7.8161275619        4.4078268360        0.9244111244
 C         -7.0111068875        3.5426698280        1.6508531230
 C         -6.8528545446        2.2314730969        1.2483680278
 C         -4.9207109628        0.5311289352       -0.3761872109
 C         -3.6984089504       -0.0858692793       -0.2388363152
 C         -1.2496339072       -0.3025217103        1.5434752453
 C         -0.1207605187        0.3230903775        1.9935630984
 C          3.6179555044        0.4184443528        1.4037018737
 C          3.7032447862        0.2748397455        0.0138175754
 C          4.9252938697        0.1692322723       -0.6099539509
 C          6.1095277709        0.2208702436        0.1354493835
 N          7.3473404571        0.1123841430       -0.5005222315
 C          8.4212368489        0.8937093520       -0.0705596448
 C          8.2066447120        2.1970058551        0.3873101250
 C          9.2720122589        2.9663888516        0.8107606358
 C         10.5614901802        2.4559374307        0.7845059728
 C         10.7795930830        1.1627752380        0.3324431798
 C          9.7223244381        0.3827810006       -0.0917223042
 C          7.5008973663       -0.7674273810       -1.5739253103
 C          6.8340899345       -1.9959659553       -1.5782124404
 C          6.9866376791       -2.8631082103       -2.6416754078
 C          7.8019148665       -2.5253161231       -3.7119543471
 C          8.4644178935       -1.3067756182       -3.7133516408
 C          8.3179977369       -0.4301507445       -2.6566412722
 C          6.0317891524        0.4023560262        1.5216667243
 C          4.8069856607        0.5121558248        2.1371382198
 H          2.2242841244       -1.7190837438        0.6279666135
 H          0.1909026563       -2.8563655658       -0.1466118066
 H         -4.7322445341       -3.2009895311        0.5540937030
 H         -6.9342210689       -2.1022524905        0.3433277513
 H         -9.8886011788        0.6479788597        0.3937033634
 H        -11.7721562446       -0.5657865720       -0.6184023557
 H        -11.3737123000       -2.1688513331       -2.4556793432
 H         -9.0750896793       -2.5418161245       -3.2796681084
 H         -7.1906721637       -1.3155260189       -2.2864893119
 H         -8.8006166654        2.2930864124       -1.5246138524
 H         -9.0845327843        4.6224677038       -0.7886471125
 H         -7.9365690101        5.4317537535        1.2434658181
 H         -6.5091560058        3.8894092717        2.5416957180
 H         -6.2388116032        1.5533380252        1.8221809248
 H         -4.9726194147        1.5677410164       -0.6750179054
 H         -2.7949337022        0.4684280679       -0.4440923103
 H         -2.2198392140        0.0569626839        1.8552411002
 H         -0.1861598183        1.1888884911        2.6382404307
 H          2.8003103478        0.2736738177       -0.5780045715
 H          4.9773743927        0.0716650215       -1.6843746785
 H          7.2050714913        2.6007708733        0.3911203564
 H          9.0953992906        3.9743309579        1.1551828273
 H         11.3907065394        3.0625128304        1.1148614125
 H         11.7796914370        0.7561820914        0.3187561780
 H          9.8902281674       -0.6302981455       -0.4252963271
 H          6.2122590623       -2.2661178554       -0.7377284606
 H          6.4721485510       -3.8122996451       -2.6310802406
 H          7.9185856259       -3.2075115353       -4.5399699513
 H          9.0925170244       -1.0336227445       -4.5478598059
 H          8.8180851552        0.5266831757       -2.6676178965
 H          6.9391126652        0.4369320691        2.1063638380
 H          4.7374948835        0.6532493170        3.2058574181
