  42
 
 C          4.9592957491        0.7858501312       -0.6021170720
 C          4.8484326743       -0.0419682859        0.5022537523
 C          3.6561037166       -0.6924089767        0.7668078264
 C          2.5516536171       -0.5086139317       -0.0610765349
 C          1.3007224734       -1.2583004577        0.1639315320
 C          1.4258790482       -2.6588352670        0.2151308359
 C          0.3312953066       -3.4698658105        0.2913959278
 C         -0.9645985012       -2.9201664142        0.2234915619
 C         -2.1057752322       -3.7449999705        0.2134489505
 C         -3.3542443945       -3.1942578545        0.1119357879
 C         -3.5028864786       -1.8139781443       -0.0258283518
 C         -2.4115629841       -0.9624838194       -0.0307350026
 C         -2.5533902456        0.4754791274       -0.2222457694
 C         -3.7363760271        1.0611773756       -0.6382096283
 C         -3.8730557509        2.4479444126       -0.7178146958
 C         -2.8438552003        3.2672582227       -0.3408313745
 C         -1.6132365611        2.7196389163        0.0739403784
 C         -0.5550149426        3.5429989853        0.5085468835
 C          0.6085086529        2.9838473570        0.9621450538
 C          0.7993445425        1.6024034548        0.9038576345
 C         -0.1739572510        0.7596270399        0.3963373079
 C          0.0363796250       -0.6740228244        0.2290444721
 C         -1.1121683645       -1.5100830248        0.1505712018
 C         -1.4433831073        1.3097221126        0.0725207265
 C          2.6765893005        0.3174714495       -1.1770663391
 C          3.8709081515        0.9594240487       -1.4429377563
 H          5.8911631827        1.2913764074       -0.8097086996
 H          5.6941466188       -0.1840431015        1.1599813448
 H          3.5694356533       -1.3316603705        1.6345390575
 H          2.4185951138       -3.0854121542        0.1867429284
 H          0.4421407703       -4.5421428301        0.3649951871
 H         -1.9752067154       -4.8152240654        0.2851309398
 H         -4.2329305019       -3.8231245396        0.1196194612
 H         -4.5011854477       -1.4178864682       -0.1245791154
 H         -4.5818758917        0.4499345783       -0.9119898905
 H         -4.8102058839        2.8674331340       -1.0550089627
 H         -2.9580831305        4.3417616449       -0.3532943574
 H         -0.6918879867        4.6148921049        0.5039742143
 H          1.4008125817        3.6068954502        1.3516324624
 H          1.7291845991        1.1977369479        1.2677995800
 H          1.8289705984        0.4506434924       -1.8342550889
 H          3.9553206229        1.5959589173       -2.3120753698
