  102
 
 C          9.9712006260        1.2129715531       -3.6980414132
 C          8.6160168692        0.9575354016       -3.6374700796
 C          8.0491800212        0.4469704580       -2.4799224638
 C          8.8289695737        0.1933158586       -1.3580691256
 C         10.2090612639        0.4247028706       -1.4413480532
 C         10.7685745672        0.9361248405       -2.5976163717
 O         11.0658767553        0.1461350473       -0.4065801816
 C         10.5240740433       -0.3705989711        0.7432873984
 C         11.3971140507       -0.6408942403        1.7807413209
 C         10.9205755261       -1.1347606934        2.9858832193
 C          9.5650665377       -1.3381448314        3.1492844791
 C          8.6852591655       -1.0709806164        2.1117663925
 C          9.1496594028       -0.6054215285        0.8876522573
 N          8.2919407064       -0.3231987478       -0.1774036326
 C          6.9056124285       -0.5592738994       -0.0636036563
 C          6.4297151445       -1.8558488197        0.1209644263
 C          5.0747237038       -2.0856514608        0.2325897184
 C          4.1737640683       -1.0246936030        0.1595200504
 C          2.7410564069       -1.2650403380        0.2768351839
 N          2.3250589278       -2.5081333714        0.5218254895
 N          1.0504818568       -2.7862611571        0.5108841382
 C          0.1286429911       -1.8572092154        0.3980916297
 C         -1.2772756348       -2.2455501805        0.2896178261
 C         -1.8476567144       -3.1349017491        1.1960341504
 C         -3.1960290878       -3.4286433419        1.1322567642
 C         -3.9903575280       -2.8457820701        0.1498792628
 N         -5.3811039898       -3.0797889076        0.1131200446
 C         -5.8930501177       -4.3528463462       -0.1378794815
 C         -5.0731198175       -5.4515449382       -0.3643399187
 C         -5.6169458000       -6.7021036552       -0.6129473021
 C         -6.9863510637       -6.8738561331       -0.6493694342
 C         -7.8183692244       -5.7814361569       -0.4548317090
 C         -7.2819101251       -4.5311234721       -0.2090474128
 O         -8.1662342701       -3.4921216387       -0.0607327983
 C         -7.6471509995       -2.2499001545        0.2027705237
 C         -8.5481923564       -1.2164240102        0.3828442257
 C         -8.0981017511        0.0591520626        0.6885058226
 C         -6.7443031327        0.2882905724        0.8305187814
 C         -5.8361038063       -0.7415841815        0.6423068602
 C         -6.2684434399       -2.0186579360        0.3045087770
 C         -3.4095337537       -2.0053531341       -0.7980090052
 C         -2.0663140778       -1.7103431604       -0.7302281149
 C          0.5505305235       -0.5066843951        0.2913444788
 C         -0.3575579834        0.6078699840        0.2891961022
 C         -1.5548382143        0.5860217622        1.0247961667
 C         -2.4549094593        1.6194617679        0.9291415814
 C         -2.1892677678        2.7119475672        0.1044803696
 N         -3.1689827168        3.7214675922       -0.0513621190
 C         -4.3836404262        3.4119514722       -0.6570606308
 C         -4.6303179037        2.1688880175       -1.2300265821
 C         -5.8544363531        1.8894716959       -1.8157929052
 C         -6.8487655729        2.8472359248       -1.8469921455
 C         -6.6085411067        4.1026006492       -1.3082404816
 C         -5.3873957049        4.3895521280       -0.7265417642
 O         -5.2074560363        5.6593739035       -0.2400602637
 C         -3.9930122087        5.9559492788        0.3265357377
 C         -3.8167778008        7.2419531925        0.8020473565
 C         -2.6256258144        7.6035556252        1.4139578342
 C         -1.6209918100        6.6669139091        1.5593903718
 C         -1.7901566494        5.3768701736        1.0828959037
 C         -2.9677804055        5.0053978740        0.4443444658
 C         -0.9704093533        2.7848616050       -0.5663668982
 C         -0.0625604908        1.7551340528       -0.4638486988
 N          1.8929204062       -0.2775721516        0.1484605810
 C          4.6524601177        0.2717560873       -0.0246952149
 C          6.0071581169        0.5033922611       -0.1348804926
 H         10.4158770203        1.6143127083       -4.5948671997
 H          7.9855937654        1.1492729745       -4.4920229247
 H          6.9917680143        0.2360808025       -2.4517285689
 H         11.8332716639        1.1053130772       -2.6176651914
 H         12.4474013619       -0.4522507726        1.6260670696
 H         11.6092577553       -1.3455441900        3.7886297204
 H          9.1769746115       -1.7036517234        4.0874570128
 H          7.6269219973       -1.2185875682        2.2583722819
 H          7.1311810394       -2.6757031803        0.1690299303
 H          4.6916041355       -3.0847673100        0.3703155570
 H         -1.2313160370       -3.5683694569        1.9688170294
 H         -3.6447585046       -4.0927482799        1.8561443495
 H         -4.0018119063       -5.3265563600       -0.3561067034
 H         -4.9572151693       -7.5391470189       -0.7815590072
 H         -7.4136901844       -7.8457667633       -0.8384799964
 H         -8.8915217715       -5.8772728832       -0.4965925825
 H         -9.5997924213       -1.4338673796        0.2854331295
 H         -8.8065395460        0.8606077048        0.8241545307
 H         -6.3836966376        1.2720615197        1.0871955186
 H         -4.7811385648       -0.5521452594        0.7622006032
 H         -4.0245191251       -1.5832621023       -1.5790287100
 H         -1.6182631083       -1.0603853711       -1.4669023482
 H         -1.7616205143       -0.2390588915        1.6891352929
 H         -3.3770190305        1.5953980294        1.4920997801
 H         -3.8570534318        1.4171203048       -1.2152155104
 H         -6.0257175784        0.9144615086       -2.2448166785
 H         -7.8056892116        2.6294747092       -2.2936841111
 H         -7.3574396684        4.8779855659       -1.3331203114
 H         -4.6268280556        7.9446159381        0.6892391405
 H         -2.4959072568        8.6095764957        1.7803234743
 H         -0.6960948252        6.9313354946        2.0484549753
 H         -1.0065281461        4.6473090016        1.2131336534
 H         -0.7537606704        3.6450918054       -1.1830864747
 H          0.8746636172        1.7976827834       -0.9969497702
 H          3.9465093219        1.0863846578       -0.0697262624
 H          6.3831216258        1.5069177598       -0.2700788455
