  76
 
 C          8.7336891882       -3.3124335397       -0.3141842286
 C          7.5260144653       -3.3511772741        0.3520731138
 C          6.6366964277       -2.2916146357        0.2547919336
 C          6.9459581188       -1.1697448373       -0.5038350915
 C          8.1603521343       -1.1553590655       -1.2033863222
 C          9.0445427051       -2.2128738965       -1.1006379552
 O          8.5250043318       -0.1193398646       -2.0269401294
 C          7.6552008183        0.9366816851       -2.1393782185
 C          8.0396742529        1.9803771968       -2.9600136188
 C          7.2285352437        3.0970669934       -3.0996201235
 C          6.0424088090        3.1675065450       -2.3981423079
 C          5.6512716930        2.1225114128       -1.5746705819
 C          6.4363756221        0.9833081006       -1.4495480455
 N          6.0728943565       -0.0861070154       -0.6275500829
 C          4.8409171438       -0.0707566354        0.0587699569
 C          3.6403151662       -0.0530751004       -0.6674835420
 C          2.4377806881       -0.0392116887       -0.0085363903
 C          2.3895909666       -0.0464088167        1.3915269863
 C          3.5931555076       -0.0688051917        2.1294002821
 C          3.5502102760       -0.0741653394        3.5583269777
 C          2.3779491550       -0.0586760476        4.2310660990
 C          1.1390546949       -0.0366225965        3.5250325751
 N          0.0001905815       -0.0193437908        4.2116229710
 C         -1.1389281127        0.0014204304        3.5255470514
 C         -2.3775193273        0.0216079146        4.2321668670
 C         -3.5500023700        0.0427165671        3.5599681374
 C         -3.5934867668        0.0447652313        2.1310480076
 C         -4.8116697623        0.0605495345        1.4414717133
 C         -4.8420051003        0.0625727718        0.0609163694
 N         -6.0743498000        0.0887865735       -0.6244481631
 C         -6.9396607268        1.1780534777       -0.4953816245
 C         -6.6229490154        2.2934293283        0.2697240166
 C         -7.5045672796        3.3589291260        0.3720641895
 C         -8.7118324945        3.3327459676       -0.2955357641
 C         -9.0300412534        2.2397744990       -1.0881966314
 C         -8.1535940253        1.1763143158       -1.1958659170
 O         -8.5252918641        0.1473400844       -2.0250721613
 C         -7.6619880453       -0.9132383255       -2.1445280300
 C         -8.0524803471       -1.9486886106       -2.9727189432
 C         -7.2481575360       -3.0693327071       -3.1198649376
 C         -6.0627777910       -3.1520098589       -2.4184642779
 C         -5.6656117313       -2.1153243927       -1.5874039472
 C         -6.4438294800       -0.9722970050       -1.4544604152
 C         -3.6417818509        0.0436067972       -0.6659105854
 C         -2.4390609211        0.0222018055       -0.0074820123
 C         -2.3902804871        0.0227567722        1.3925808341
 C         -1.1396925380        0.0031106859        2.0986479273
 N         -0.0003507330       -0.0130494892        1.4136771121
 C          1.1392563139       -0.0318939619        2.0981445766
 C          4.8111341473       -0.0766736032        1.4393248303
 H          9.4310344740       -4.1316383710       -0.2381543325
 H          7.2602197572       -4.2077694115        0.9522843568
 H          5.6888459627       -2.3436076245        0.7672589832
 H          9.9705696055       -2.1586199162       -1.6503619329
 H          8.9820704715        1.9017797074       -3.4780495288
 H          7.5353599141        3.9051128906       -3.7446902346
 H          5.4097363345        4.0378907091       -2.4802992455
 H          4.7297270809        2.1984601750       -1.0189952232
 H          3.6797688530       -0.0579319055       -1.7466984912
 H          1.5052931947       -0.0306154785       -0.5500526628
 H          4.4903519765       -0.0910463870        4.0910110401
 H          2.3338401752       -0.0619408020        5.3090681888
 H         -2.3329823144        0.0195134542        5.3101554946
 H         -4.4899130787        0.0588946932        4.0930838341
 H         -5.7378023770        0.0680083484        1.9983275962
 H         -5.6752673533        2.3357167878        0.7833831449
 H         -7.2330603910        4.2101843201        0.9772900374
 H         -9.4031556995        4.1566785941       -0.2157209198
 H         -9.9559300991        2.1953130767       -1.6390292565
 H         -8.9941229032       -1.8606078887       -3.4906021704
 H         -7.5596895472       -3.8709042348       -3.7707329194
 H         -5.4354445076       -4.0256722913       -2.5065604719
 H         -4.7448097761       -2.2007986643       -1.0318675946
 H         -3.6815665811        0.0540539372       -1.7450763102
 H         -1.5068232696        0.0131261342       -0.5494239836
 H          5.7374866495       -0.0834913793        1.9958221221
