  114
 
 C         -0.2666652163        1.4454640692        9.0040993722
 C         -0.1711314214        0.2259834081        9.6581827329
 N         -0.0652270318       -0.9288664061        9.0200890325
 C         -0.0452730657       -0.9143623903        7.7003493714
 C         -0.1265430675        0.2480801448        6.9309591351
 C         -0.0977412892        0.1953419499        5.4643176387
 C         -0.9526707575        0.9940587713        4.7075054218
 C         -0.9294634346        0.9351997537        3.3275191313
 C         -0.0522604117        0.0895422589        2.6550683771
 Si        -0.0169306357       -0.0055606468        0.7619417085
 C          1.7937238390       -0.0246306723        0.1999318480
 C          2.2274946940       -0.8365325013       -0.8438881173
 C          3.5468926109       -0.8383378009       -1.2536067518
 C          4.4711601654       -0.0092210515       -0.6246837196
 N          5.8125544666       -0.0026737187       -1.0365751962
 C          6.2597011709        0.1605668416       -2.3325529977
 C          5.5373435914        0.3994972569       -3.4935913043
 C          6.2422345515        0.5548967632       -4.6719375608
 C          7.6337450646        0.4836461271       -4.7027713231
 C          8.3591293216        0.2690449443       -3.5476154324
 C          7.6731096116        0.1106100326       -2.3500362412
 C          8.0903662598       -0.0997099801       -0.9917241247
 C          9.3308356648       -0.2483078627       -0.3841503510
 C          9.3791174272       -0.4622369843        0.9791342959
 C          8.2098859969       -0.5429757325        1.7333724384
 C          6.9645944080       -0.3987735460        1.1520674035
 C          6.9103936680       -0.1597607695       -0.2142121504
 C          4.0536839977        0.8111424711        0.4198365242
 C          2.7332236302        0.7929908569        0.8240089470
 C         -0.9096233891        1.5001733418        0.0335437332
 C         -0.2121765864        2.6208490594       -0.4073509133
 C         -0.8715091637        3.7310135336       -0.8991504067
 C         -2.2615565925        3.7392909871       -0.9705231677
 N         -2.9392383767        4.8641018755       -1.4651048106
 C         -3.9777249734        5.5214075856       -0.8357797902
 C         -4.5597102126        5.2768949974        0.4005326625
 C         -5.5798873212        6.1136144408        0.8110979722
 C         -6.0127516778        7.1763510615        0.0202004808
 C         -5.4225721417        7.4387541098       -1.2002248240
 C         -4.3941079139        6.6119786202       -1.6343969286
 C         -3.5616740249        6.6012574206       -2.8048557632
 C         -3.4999205686        7.3976457600       -3.9414289533
 C         -2.5693242110        7.0915455168       -4.9145324674
 C         -1.7166716183        5.9984074928       -4.7714783477
 C         -1.7585221172        5.1919968166       -3.6501266710
 C         -2.6759424515        5.5084089097       -2.6575365419
 C         -2.9741579796        2.6213819569       -0.5450334704
 C         -2.3002035641        1.5239170113       -0.0465723699
 C         -0.8995708065       -1.5725673247        0.1641056750
 C         -1.1486956656       -2.6440583680        1.0163373554
 C         -1.7712299304       -3.7922840698        0.5655780393
 C         -2.1712638232       -3.8903824456       -0.7639289222
 N         -2.8060052237       -5.0516791170       -1.2299296636
 C         -2.4424890662       -5.7781113714       -2.3464538075
 C         -1.3821199699       -5.5842049490       -3.2210309523
 C         -1.2255028001       -6.4857254435       -4.2564635348
 C         -2.0934444689       -7.5636940360       -4.4204423714
 C         -3.1364645368       -7.7750819130       -3.5406441581
 C         -3.3145795215       -6.8821977673       -2.4913408138
 C         -4.2520905224       -6.8061559505       -1.4056321348
 C         -5.3402569133       -7.5815938701       -1.0253934962
 C         -6.0626667932       -7.2071976690        0.0902258569
 C         -5.7212032597       -6.0670087073        0.8152861627
 C         -4.6436907728       -5.2795996518        0.4568843647
 C         -3.8991550488       -5.6638832836       -0.6498370175
 C         -1.9381994403       -2.8235470748       -1.6278097575
 C         -1.3072136749       -1.6864786740       -1.1632645453
 C          0.8053300892       -0.6994064055        3.4188596606
 C          0.7835708922       -0.6552032280        4.7989166901
 C         -0.2425943364        1.4548215808        7.6205064128
 H         -0.3511834881        2.3637123449        9.5648669077
 H         -0.1784210638        0.1629953949       10.7386694008
 H          0.0233567214       -1.8860952695        7.2273553549
 H         -1.6531144733        1.6480857488        5.2074248335
 H         -1.6022569548        1.5599448960        2.7580903506
 H          1.5212522541       -1.4887667969       -1.3358866733
 H          3.8730835889       -1.4899279799       -2.0511486284
 H          4.4602087555        0.4712816989       -3.4781953703
 H          5.7028731922        0.7389776169       -5.5898523474
 H          8.1481851318        0.6073530054       -5.6446079333
 H          9.4381064368        0.2294360971       -3.5692870264
 H         10.2364675788       -0.2012416595       -0.9705411056
 H         10.3340256402       -0.5774725335        1.4709745522
 H          8.2785051415       -0.7260348407        2.7959894838
 H          6.0644858074       -0.4786836048        1.7428066226
 H          4.7665367620        1.4655693907        0.9001230523
 H          2.4222043904        1.4288483126        1.6404545776
 H          0.8667358136        2.6260480619       -0.3598208514
 H         -0.3173236813        4.6021062754       -1.2170203144
 H         -4.2223984055        4.4654954047        1.0277028244
 H         -6.0509865001        5.9421590818        1.7682448055
 H         -6.8156871882        7.8059406508        0.3750256352
 H         -5.7479658861        8.2710106723       -1.8065616863
 H         -4.1712064027        8.2352908622       -4.0595648602
 H         -2.5037909715        7.6995877851       -5.8050166081
 H         -1.0089439835        5.7749383916       -5.5566749598
 H         -1.1042267990        4.3383796336       -3.5566577844
 H         -4.0518760508        2.6168003471       -0.6189826211
 H         -2.8636166090        0.6611515314        0.2786422869
 H         -0.8464561284       -2.5796559676        2.0511384771
 H         -1.9397183507       -4.6233382553        1.2347680639
 H         -0.6942293999       -4.7620622781       -3.0935870390
 H         -0.4095462115       -6.3544227802       -4.9524204058
 H         -1.9388870322       -8.2457289676       -5.2437656435
 H         -3.7996169050       -8.6191174758       -3.6591498860
 H         -5.6146810408       -8.4565191592       -1.5959428980
 H         -6.9105623044       -7.7984503751        0.4041195460
 H         -6.3142159591       -5.7909263527        1.6752183205
 H         -4.3976792446       -4.3892753870        1.0158034617
 H         -2.2657927437       -2.8890568706       -2.6551658410
 H         -1.1384959013       -0.8619689627       -1.8410198003
 H          1.5050587312       -1.3549317565        2.9198862805
 H          1.4675126682       -1.2663273974        5.3707139858
 H         -0.2941902664        2.3870261215        7.0760058876
