  79
 
 C         -5.7725918605        3.1838151907       -2.9834754715
 C         -5.8110759178        3.5366644365       -1.6426107626
 C         -5.8366740614        2.5637017965       -0.6516681796
 C         -5.8215302644        1.2395161779       -1.0320984632
 C         -5.7815554863        0.8765179107       -2.3862279424
 C         -5.7573316211        1.8525885799       -3.3692809870
 C         -5.7713473833       -0.5758472334       -2.4746822758
 C         -5.7349744202       -1.4249246792       -3.5689819199
 C         -5.7314919391       -2.7932328272       -3.3476724446
 C         -5.7628502775       -3.3065223551       -2.0595252795
 C         -5.8001406156       -2.4615237082       -0.9578366886
 C         -5.8045048945       -1.1008634406       -1.1745429801
 C         -5.8445147497        0.0111804825       -0.1524888861
 C         -7.0487807248       -0.0523990818        0.7564605525
 C         -8.3830762996       -0.0458451961        0.4118336889
 C         -9.3287579443       -0.1142023765        1.4266919194
 C         -8.9409440586       -0.1863557919        2.7571014470
 C         -7.6005819447       -0.1940298313        3.1080447697
 C         -6.6507693844       -0.1271168344        2.1002179943
 C         -5.1991535043       -0.1205854922        2.1519263329
 C         -4.3199322047       -0.1814285775        3.2239799283
 C         -2.9614992495       -0.1626210587        2.9726943858
 C         -2.4700482609       -0.0830948700        1.6664206339
 C         -1.0308554818       -0.0664275636        1.4264583697
 N         -0.6080772221        0.0463955889        0.1648533808
 C          0.6895616587        0.0545324461       -0.0502792481
 C          1.6340099217       -0.0409472719        0.9765088820
 C          3.0753361025       -0.0293084093        0.7314155160
 C          3.6228912905        0.8000623648       -0.2473511795
 C          4.9823021616        0.8100791145       -0.4837249122
 C          5.8292402633       -0.0114189651        0.2572232763
 N          7.2088391301       -0.0045577684        0.0157724492
 C          7.9965463488       -1.1179219621       -0.2082042800
 C          7.6353331537       -2.4556095985       -0.2876517599
 C          8.6297217119       -3.3785434617       -0.5515117516
 C          9.9533561289       -2.9873667193       -0.7431451876
 C         10.3145120006       -1.6556009888       -0.6902468662
 C          9.3326200149       -0.7092120825       -0.4256818103
 C          9.3443131484        0.7235293912       -0.3185278813
 C         10.3470051064        1.6805877079       -0.4106639325
 C         10.0148990981        3.0077052890       -0.2229994539
 C          8.7049389846        3.3839933201        0.0673014046
 C          7.6901164793        2.4504830828        0.1620280393
 C          8.0132517384        1.1174061130       -0.0492763820
 C          5.2898071569       -0.8405252571        1.2383418043
 C          3.9294552232       -0.8475572608        1.4705434785
 C          1.0813419648       -0.1481936355        2.2563605840
 N         -0.2152287543       -0.1649719048        2.4793016084
 C         -3.3564691762       -0.0200529488        0.5851534700
 C         -4.7062249365       -0.0404882605        0.8383153070
 H         -5.7539712943        3.9582361285       -3.7369130400
 H         -5.8215572430        4.5807834799       -1.3651315693
 H         -5.8667271724        2.8385841573        0.3930266990
 H         -5.7270264516        1.5835352002       -4.4147871397
 H         -5.7097587924       -1.0307285012       -4.5741127592
 H         -5.7034312744       -3.4703976085       -4.1893084945
 H         -5.7586871991       -4.3765337492       -1.9105176713
 H         -5.8245862468       -2.8621702397        0.0454873083
 H         -8.6856461728        0.0103956539       -0.6238573841
 H        -10.3796934661       -0.1108231639        1.1766175012
 H         -9.6953252557       -0.2378183458        3.5288606892
 H         -7.3028319139       -0.2507692024        4.1444036500
 H         -4.6882498191       -0.2426741627        4.2369657692
 H         -2.2512150403       -0.2089630406        3.7835601023
 H          0.9916584412        0.1217420024       -1.0889342577
 H          2.9778284874        1.4505382678       -0.8191778793
 H          5.3948367758        1.4447155957       -1.2535784917
 H          6.6100539338       -2.7682392671       -0.1589558106
 H          8.3739638135       -4.4263317042       -0.6144935501
 H         10.7022685432       -3.7392423268       -0.9446504276
 H         11.3373895386       -1.3512587875       -0.8547990337
 H         11.3651279969        1.3876031755       -0.6193317129
 H         10.7795650110        3.7675040204       -0.2921646103
 H          8.4778675632        4.4283547701        0.2252755194
 H          6.6819268657        2.7514970053        0.4039169152
 H          5.9440494466       -1.4679592655        1.8247134259
 H          3.5210209292       -1.5043486466        2.2242561348
 H          1.7091165136       -0.2055207943        3.1379637962
 H         -2.9663816670        0.0408277688       -0.4189289757
