  70
 
 O         -3.7220017991        3.2312721920       -1.0885882302
 C         -3.0261147945        2.7633203864       -0.2015206602
 C         -1.9230835437        1.8772360969       -0.3973335831
 C         -1.6117483516        1.3635596429       -1.7658578883
 C         -0.1001714039        1.2986343070       -1.9386559691
 C          0.5719063984        0.4038085496       -0.8861597941
 C          0.5643306908       -1.0220333597       -1.3714936604
 C          1.5374993313       -1.4698593170       -2.2574648229
 C          1.5033773172       -2.7545459465       -2.7666866773
 C          0.4760421756       -3.6145424603       -2.4142735056
 C         -0.5135648905       -3.1785776231       -1.5545097219
 C         -0.4711397200       -1.8901837542       -1.0319880188
 N         -1.5085702670       -1.4848979474       -0.1433790688
 C         -1.4901205099       -2.0395792718        1.1318760429
 C         -0.3878442533       -2.7991325406        1.5428660197
 C         -0.3032074170       -3.3232696817        2.8178628614
 C         -1.3180044153       -3.1038942982        3.7335155257
 C         -2.4163249752       -2.3582207272        3.3486417599
 C         -2.5084234276       -1.8288743290        2.0694615878
 S         -3.9702640980       -0.9127572675        1.7121025180
 C         -3.7176035646       -0.4610711739        0.0184352881
 C         -4.8149654887        0.1331431409       -0.6026856163
 C         -4.7776726018        0.3927316483       -1.9825755847
 C         -3.6257206351        0.2414539405       -2.6723924300
 C         -2.3347160485       -0.0393119094       -1.9818165081
 C         -2.5424112621       -0.7217766897       -0.6561148217
 P          2.3541554957        1.0400326478       -0.8130269602
 O          2.8383872504        1.5563841982       -2.0983319513
 C          2.3052987976        2.3366063449        0.4655022687
 C          2.1280686476        3.6384111753        0.0162113877
 C          2.0565440800        4.6821472162        0.9208051999
 C          2.1746690965        4.4267149667        2.2768352651
 C          2.3780470556        3.1312100258        2.7254643795
 C          2.4441356071        2.0846835313        1.8241118395
 C          3.4106694103       -0.2858875093       -0.1367146932
 C          3.0113560472       -1.2421356683        0.7873272268
 C          3.9151051441       -2.1918344758        1.2286710944
 C          5.2179923392       -2.1893464650        0.7576400721
 C          5.6200842412       -1.2349152750       -0.1621589458
 C          4.7173465233       -0.2871518455       -0.6082309084
 C         -0.0426892438        0.6162762144        0.4546411165
 C         -1.1287790383        1.4141214833        0.6584201480
 H         -3.2103343665        3.0326367689        0.8584307928
 H         -2.0316750960        2.0517618296       -2.5053555912
 H          0.1709206199        0.9559038645       -2.9393536673
 H          0.2904768884        2.3149678721       -1.8211411233
 H          2.3235324760       -0.7944385708       -2.5608219334
 H          2.2759370457       -3.0816179709       -3.4453139206
 H          0.4388090770       -4.6161020759       -2.8140118122
 H         -1.3304278756       -3.8283951491       -1.2761913730
 H          0.4156196574       -2.9860434372        0.8477535879
 H          0.5637991090       -3.9045843407        3.0928032440
 H         -1.2585908784       -3.5071852359        4.7317831685
 H         -3.2263242041       -2.1729316793        4.0373080719
 H         -5.7073342758        0.3150155617       -0.0278529272
 H         -5.6842518286        0.6973683217       -2.4807334657
 H         -3.5739903454        0.4347588729       -3.7319911639
 H         -1.6890247372       -0.6373922506       -2.6320150976
 H          2.0671378049        3.8211438121       -1.0471642222
 H          1.9122932174        5.6929799958        0.5694196732
 H          2.1195092446        5.2391678733        2.9862003689
 H          2.4877212991        2.9367975488        3.7824591966
 H          2.6176107419        1.0774260143        2.1751861794
 H          1.9982130638       -1.2605305683        1.1582660158
 H          3.6000364259       -2.9374790991        1.9442232863
 H          5.9183010547       -2.9336584914        1.1066937221
 H          6.6347468274       -1.2314375513       -0.5318057932
 H          5.0052375811        0.4598644720       -1.3342006541
 H          0.4580398940        0.1805197311        1.3062737269
 H         -1.4226144017        1.6567696640        1.6716399984
