  53
 
 N         -2.3333396540       -6.3662540315       -0.5751743228
 C         -1.7253603872       -5.4163438489       -0.3700185976
 C         -0.9768628402       -4.2458785079       -0.1102747828
 C          0.2693421888       -4.3359462872        0.5122955102
 C          0.9835463913       -3.1859153501        0.7743514779
 C          0.4811015321       -1.9338655580        0.4270273995
 N          1.2091775477       -0.7825217965        0.7331331779
 C          0.6877026606        0.3609224720        1.3151871304
 C         -0.5049906262        0.5254445848        2.0012481527
 C         -0.7947233512        1.7837065776        2.4933179352
 C          0.0924790748        2.8445682943        2.3350801418
 C          1.3116102096        2.6668749156        1.7106793056
 C          1.6210410851        1.4130387619        1.2032497149
 C          2.7702858577        0.8693734428        0.5330380158
 C          3.9830865392        1.4105560740        0.1308501418
 C          4.8839694900        0.5987950642       -0.5300131064
 C          4.5832782350       -0.7332317340       -0.8000919911
 C          3.3806271527       -1.2938417123       -0.4115534405
 C          2.4806139447       -0.4869382239        0.2665327594
 C         -0.7614830791       -1.8457771939       -0.2363477183
 N         -1.2693492735       -0.6076919388       -0.6428844965
 C         -0.5514310490        0.3665739781       -1.3150811150
 C          0.6460837468        0.2513958696       -2.0029555560
 C          1.1604375091        1.3901369802       -2.5926417071
 C          0.4868644956        2.6065892972       -2.5267335280
 C         -0.7387096024        2.7092675964       -1.8983824384
 C         -1.2718625676        1.5797075563       -1.2938418332
 C         -2.4949153689        1.3154975422       -0.5872797404
 C         -3.5841294099        2.1021413691       -0.2398088202
 C         -4.6138047402        1.5272684739        0.4786958489
 C         -4.5623895757        0.1888896648        0.8584365425
 C         -3.4869533524       -0.6138190194        0.5262014850
 C         -2.4581712559       -0.0443617076       -0.2075575489
 C         -1.4829880347       -3.0036664494       -0.4869678515
 H          0.6586466919       -5.3016567364        0.7963426425
 H          1.9329656461       -3.2405992404        1.2853146431
 H         -1.1855065669       -0.2984503142        2.1547151457
 H         -1.7278912476        1.9429680971        3.0123889025
 H         -0.1723134521        3.8152453795        2.7265428234
 H          2.0133294651        3.4818348422        1.6198898324
 H          4.2100069803        2.4470898314        0.3281991345
 H          5.8338398153        1.0001536118       -0.8501442002
 H          5.3023896509       -1.3420061601       -1.3278998889
 H          3.1517628200       -2.3237375912       -0.6431274417
 H          1.1608427005       -0.6941964049       -2.0841206122
 H          2.1029108471        1.3312269716       -3.1160950167
 H          0.9242880563        3.4765232606       -2.9931349703
 H         -1.2756332801        3.6453134600       -1.8775811942
 H         -3.6183769747        3.1426375160       -0.5245169857
 H         -5.4712582492        2.1214385671        0.7570725858
 H         -5.3781798111       -0.2321392750        1.4271482506
 H         -3.4521241715       -1.6467558703        0.8404548230
 H         -2.4294814133       -2.9395891004       -1.0031686185
