  94
 
 C          4.8889219825        2.4173951209       -0.2896494734
 C          4.5913161063        2.1368732024        1.1986804625
 C          5.1756800814        3.2850274262        2.0224303609
 C          3.0923954898        1.9906677597        1.3905408841
 C          2.2782859798        2.9277508848        2.0063766322
 C          0.9198923736        2.7010148931        2.1575291631
 C          0.3526785934        1.5226785035        1.6997630105
 C          1.1402672005        0.5784928648        1.0724984423
 C          2.5023639196        0.8148956484        0.9063660468
 N          3.3450946022       -0.1667936480        0.3584582405
 C          3.0830514642       -0.7892362990       -0.8459359790
 C          3.9079674712       -1.8254915562       -1.3435133415
 C          3.5823246094       -2.4716138973       -2.5274580468
 C          2.4804339900       -2.0923588309       -3.2677868767
 C          1.7382536298       -0.9881327186       -2.8455540116
 S          0.2699160638       -0.4941665791       -3.7286296692
 O          0.4656210551        0.8396350037       -4.2776617737
 O         -0.0390098357       -1.5456341546       -4.6844721838
 C         -0.9596726158       -0.3971641024       -2.4728258164
 C         -1.2597674232       -1.5514238120       -1.7358040226
 C         -1.9841997497       -1.4438128162       -0.5651001135
 N         -2.2328376055       -2.5885017733        0.2037687794
 C         -3.4479213541       -2.9842452234        0.7244208665
 C         -4.7008509372       -2.4065832094        0.5818598823
 C         -5.7761539160       -3.0261517332        1.1954090300
 C         -5.6124607240       -4.2000165478        1.9274092811
 C         -4.3700887713       -4.7968148679        2.0528257164
 C         -3.2773130341       -4.1928558224        1.4450692777
 C         -1.8859123675       -4.5335824482        1.3455152658
 C         -1.1200146634       -5.5827798155        1.8366216356
 C          0.2355558370       -5.5991609263        1.5594439705
 C          0.8308714128       -4.5811012286        0.8180245787
 C          0.0881418780       -3.5247185941        0.3176480157
 C         -1.2771100746       -3.5163141967        0.5682449420
 C         -2.4296685984       -0.1869174549       -0.1097175585
 C         -2.1241957402        0.9643597590       -0.8622119320
 N         -2.5520493311        2.2189172670       -0.4128694232
 C         -1.7720870114        3.3571864692       -0.3329191724
 C         -0.4326660876        3.5419488241       -0.6445710407
 C          0.1118699839        4.8013340828       -0.4506582378
 C         -0.6500446134        5.8513068384        0.0541044191
 C         -1.9810395927        5.6704632430        0.3885593116
 C         -2.5495446057        4.4179693871        0.1981172300
 C         -3.8627307715        3.8873604403        0.4310850194
 C         -5.0472097954        4.4369919325        0.9043080122
 C         -6.1739569451        3.6351542539        0.9618680505
 C         -6.1348088479        2.3086005598        0.5389598860
 C         -4.9636874268        1.7398413375        0.0665437652
 C         -3.8224511323        2.5274738545        0.0336678162
 C         -1.3833952514        0.8615358297       -2.0240295372
 C          2.0271072249       -0.3512680750       -1.6473653597
 C          4.5132366133       -0.3556688813        1.1194649226
 C          4.9331410295       -1.6233122573        1.5129566547
 C          6.0694225605       -1.7638753679        2.2864462846
 C          6.7735457267       -0.6411280589        2.6875679829
 C          6.3183688510        0.6239373750        2.3503439285
 C          5.1802853253        0.7901148524        1.5782003837
 H          5.9644154099        2.4576664120       -0.4479397136
 H          4.4766619046        1.6496075868       -0.9390223541
 H          4.4587690197        3.3736557418       -0.5782820548
 H          5.0005009445        3.1319415683        3.0846162494
 H          6.2445792439        3.3662318522        1.8444847250
 H          4.7256696253        4.2265013551        1.7191844262
 H          2.6949859662        3.8478420830        2.3804967454
 H          0.3048186973        3.4418707737        2.6442521200
 H         -0.6994667962        1.3319797317        1.8398903677
 H          0.7121999562       -0.3531279322        0.7348752678
 H          4.8033834094       -2.1098689086       -0.8202794040
 H          4.2080769766       -3.2804025470       -2.8734738148
 H          2.1934238578       -2.5891028721       -4.1804217457
 H         -0.9371987213       -2.5069075158       -2.1179721389
 H         -4.8362536879       -1.5120288084       -0.0044944809
 H         -6.7606644801       -2.5934368183        1.0995489427
 H         -6.4734887363       -4.6548281046        2.3944233961
 H         -4.2507935442       -5.7156588412        2.6063926458
 H         -1.5753628323       -6.3668753155        2.4219780144
 H          0.8468652555       -6.4092437040        1.9286250229
 H          1.8919900547       -4.6187736092        0.6251161804
 H          0.5587179792       -2.7372118579       -0.2522077458
 H         -2.9436112960       -0.1047280316        0.8329080064
 H          0.1716782795        2.7363315517       -1.0295539178
 H          1.1487789660        4.9685037609       -0.6982325868
 H         -0.1916075870        6.8196162796        0.1899016164
 H         -2.5684368745        6.4832340103        0.7874572562
 H         -5.0872598513        5.4707055235        1.2118455128
 H         -7.1038167321        4.0452423122        1.3270818885
 H         -7.0347950866        1.7132696239        0.5733695475
 H         -4.9459262110        0.7217301480       -0.2873770777
 H         -1.1533430012        1.7191313520       -2.6348926696
 H          1.4247164865        0.4979597087       -1.3678115616
 H          4.3462296681       -2.4882013526        1.2474923652
 H          6.3937894972       -2.7482845751        2.5876299781
 H          7.6648693058       -0.7463713203        3.2870547306
 H          6.8643137228        1.4829023160        2.7032193378
