  112
 
 C        -12.0643476123        2.5844074200        3.1771435819
 C        -10.8082511003        2.0571311393        3.4292128235
 C        -10.2205451079        1.1886304234        2.5304991403
 C        -10.8847484969        0.8395027611        1.3545930398
 N        -10.2936178448       -0.0381509711        0.4388312322
 C        -11.0844143222       -0.9722485191       -0.2403367676
 C        -10.8212874164       -1.2850906337       -1.5740544703
 C        -11.6005142504       -2.2123928873       -2.2375376220
 C        -12.6550577968       -2.8350947200       -1.5897961088
 C        -12.9241389721       -2.5236488824       -0.2669036774
 C        -12.1461635356       -1.6032948468        0.4077997423
 C         -8.9191743129        0.0135026790        0.2053346503
 C         -8.1965337206       -1.1539706960       -0.0547462106
 C         -6.8440191229       -1.0988919995       -0.3015964306
 C         -6.1492500354        0.1159922579       -0.2754287833
 C         -4.7140151563        0.1620836701       -0.5308877453
 C         -4.1930291700       -0.3940745530       -1.7366497986
 C         -5.0335123065       -0.9039890927       -2.7356940924
 C         -4.5229696658       -1.5227760569       -3.8657740547
 C         -3.1551377060       -1.6596711593       -4.0163311057
 C         -2.2991399465       -1.1123804562       -3.0721158376
 C         -2.7853419625       -0.4174164077       -1.9585944536
 C         -1.9019874784        0.2040043085       -1.0192903221
 C         -0.4819435425        0.2502380229       -1.2963564568
 C         -0.0451205368        0.8044483749       -2.5111094262
 C          1.2854948944        0.9691025466       -2.7909676429
 C          2.2736330940        0.5469321644       -1.8836376273
 C          3.6531595619        0.6896149840       -2.1543962723
 C          4.5967620000        0.2685502258       -1.2682183575
 C          4.2338799616       -0.3366137379       -0.0362180230
 C          5.1925755779       -0.7888204553        0.8975710025
 C          6.6274436033       -0.5396493014        0.7239514744
 C          7.5441289247       -1.5836833424        0.8470643383
 C          8.8971456910       -1.3645112156        0.7034990407
 C          9.3824611843       -0.0802609558        0.4529513785
 N         10.7539882523        0.1474030484        0.3095304984
 C         11.2135904512        1.0923041602       -0.6141514874
 C         10.5672537457        1.2566464341       -1.8393880625
 C         11.0214927575        2.1944905090       -2.7457320357
 C         12.1275472292        2.9756099348       -2.4531978142
 C         12.7762115293        2.8130772703       -1.2399412723
 C         12.3246025621        1.8839889258       -0.3232079203
 C         11.6669097639       -0.5739106069        1.0869802964
 C         12.8824526422       -0.9923818198        0.5457977277
 C         13.7800608295       -1.7029513584        1.3184639834
 C         13.4810651730       -2.0146894708        2.6347504464
 C         12.2738446517       -1.6040740614        3.1762107525
 C         11.3730001897       -0.8860974932        2.4143708681
 C          8.4722099795        0.9731750610        0.3528098600
 C          7.1193036905        0.7434209463        0.4804866230
 C          4.7708708727       -1.4830922492        2.0305496660
 C          3.4367995658       -1.7010522574        2.2863683232
 C          2.4542126324       -1.2260240570        1.4071266970
 C          1.0722963862       -1.4358955736        1.6391941102
 C          0.1314047467       -0.9593802029        0.7814093105
 C          0.4931068431       -0.2314417598       -0.3801725804
 C          1.8708985816       -0.0707683877       -0.6733882339
 C          2.8545789724       -0.5401167246        0.2342150562
 C         -2.4378850272        0.8293128277        0.1536889968
 C         -1.6297114016        1.5680414292        1.0250983980
 C         -2.1357695142        2.1214673408        2.1902762708
 C         -3.4684801077        1.9404728772        2.5154308642
 C         -4.3066693076        1.2720329470        1.6385239934
 C         -3.8359512882        0.7604128919        0.4210030913
 C         -6.8789792143        1.2780348470       -0.0006753354
 C         -8.2363742224        1.2324541612        0.2235620248
 C        -12.1479148173        1.3756001299        1.1039859484
 C        -12.7299850168        2.2375403648        2.0126192439
 H        -12.5215062883        3.2605740894        3.8833553074
 H        -10.2849878380        2.3170692126        4.3375731962
 H         -9.2466529451        0.7684919407        2.7348530868
 H        -10.0070841493       -0.7916909050       -2.0843339465
 H        -11.3876880497       -2.4442424321       -3.2707112966
 H        -13.2630752612       -3.5577434176       -2.1123250108
 H        -13.7412388444       -3.0078742198        0.2472559421
 H        -12.3508361122       -1.3699072226        1.4424617589
 H         -8.7075459269       -2.1057741684       -0.0497481404
 H         -6.2964736876       -2.0132683663       -0.4779875616
 H         -6.1030318186       -0.8087986836       -2.6259154146
 H         -5.1972270082       -1.9101995194       -4.6153861148
 H         -2.7478421833       -2.1805413348       -4.8701602624
 H         -1.2338775401       -1.2301894354       -3.1993129976
 H         -0.7888091278        1.1706852608       -3.2049655750
 H          1.5916619179        1.4454689807       -3.7115906043
 H          3.9480541722        1.1351191465       -3.0943793652
 H          5.6443676730        0.3669210407       -1.5097914806
 H          7.1830101017       -2.5862090958        1.0251639898
 H          9.5909818072       -2.1892322874        0.7772940062
 H          9.7118305714        0.6405955221       -2.0751211413
 H         10.5128825039        2.3097719277       -3.6916462402
 H         12.4815008692        3.7053319828       -3.1654522441
 H         13.6363736452        3.4211054515       -1.0009237637
 H         12.8259504369        1.7669460214        0.6264638639
 H         13.1135147475       -0.7598578286       -0.4835136512
 H         14.7166224562       -2.0234393617        0.8862068222
 H         14.1836820211       -2.5734066809        3.2341428222
 H         12.0346295790       -1.8372952047        4.2034001916
 H         10.4368440706       -0.5578529223        2.8418645026
 H          8.8376529794        1.9753949714        0.1820354474
 H          6.4305278065        1.5740252288        0.4265922602
 H          5.5155089851       -1.8306962204        2.7330148274
 H          3.1325079998       -2.2334202367        3.1761375268
 H          0.7783972326       -1.9926787515        2.5177582794
 H         -0.9158733221       -1.1398026229        0.9730708237
 H         -0.5852937247        1.7045262304        0.7902988507
 H         -1.4825612702        2.6770300850        2.8465059037
 H         -3.8625391962        2.3286514340        3.4431467723
 H         -5.3450913956        1.1390073119        1.9009943330
 H         -6.3724128499        2.2321088650       -0.0112146523
 H         -8.7862437209        2.1451102585        0.4021286101
 H        -12.6640614638        1.1143405373        0.1917207965
 H        -13.7072685588        2.6480462878        1.8055116285
