  72
 
 N          2.5227760987       -4.7314031163        0.2673954036
 C          1.4522599109       -4.3160618709        0.2648830247
 C          0.1082189101       -3.8873096419        0.2390707245
 C         -0.7679798934       -4.7685452483        0.9075060829
 N         -1.4292856586       -5.5000346686        1.4964162652
 C         -0.2941088477       -2.7400820120       -0.3842274085
 C          0.6839827202       -1.8038965755       -0.9400404437
 C          0.4823796642       -1.2970613930       -2.2254365203
 C          1.4127856528       -0.4309356057       -2.7688579745
 C          2.5116335867       -0.0273821761       -2.0366737082
 C          2.7061734151       -0.4910208817       -0.7305103654
 N          3.7806725083       -0.0403357129        0.0232183176
 C          4.2885885078        1.2564960083       -0.1729943975
 C          5.6642704612        1.4785030083       -0.1581002294
 C          6.1637090643        2.7541126188       -0.3421345669
 C          5.3040293894        3.8210192243       -0.5487080348
 C          3.9355171022        3.6046637594       -0.5613053864
 C          3.4265936130        2.3341972290       -0.3693934893
 C          4.3670956297       -0.8501459018        1.0114874619
 C          4.7618289036       -0.2909625118        2.2260809390
 C          5.3518759933       -1.0799737709        3.1950712067
 C          5.5491143766       -2.4333198824        2.9722004442
 C          5.1580639060       -2.9924976917        1.7664099369
 C          4.5757271500       -2.2094024504        0.7877798432
 C          1.7911737828       -1.4026150636       -0.2007677149
 C         -1.7082274117       -2.4029470226       -0.5304612782
 C         -2.6557823094       -3.3668426492       -0.8782085698
 C         -3.9825769387       -2.9982176324       -1.0124911389
 C         -4.3808347602       -1.6943605199       -0.7925401298
 C         -3.4453889844       -0.7167840481       -0.4337457134
 N         -3.8449393431        0.5921761235       -0.1954071415
 C         -5.1183402987        0.8574027830        0.3392558494
 C         -5.6447879352        0.0564792940        1.3513882612
 C         -6.8973769351        0.3264678446        1.8695155863
 C         -7.6357031797        1.3991510628        1.3960279403
 C         -7.1118536493        2.2031564517        0.3965070902
 C         -5.8637164319        1.9359083008       -0.1335451654
 C         -2.9785032452        1.6686075642       -0.4468576794
 C         -2.9301140531        2.7484879800        0.4336926141
 C         -2.0888494861        3.8154857656        0.1810923416
 C         -1.2810544697        3.8200992371       -0.9445190140
 C         -1.3257792330        2.7491665956       -1.8225022556
 C         -2.1692168618        1.6811529196       -1.5820010405
 C         -2.1056247558       -1.0847937090       -0.3213378780
 H         -0.3765060601       -1.6134487588       -2.7970309005
 H          1.2800865783       -0.0650265703       -3.7758535061
 H          3.2307046944        0.6516901617       -2.4690780912
 H          6.3342851254        0.6455359767       -0.0026878289
 H          7.2319396107        2.9138023671       -0.3316059010
 H          5.6983563420        4.8150639972       -0.6968715285
 H          3.2573134996        4.4317646078       -0.7118114446
 H          2.3591344273        2.1689178034       -0.3664887882
 H          4.6022666946        0.7628853978        2.4032418702
 H          5.6513564760       -0.6359763648        4.1332810036
 H          6.0055450289       -3.0483799270        3.7332186578
 H          5.3063165511       -4.0452809060        1.5795535233
 H          4.2762375369       -2.6528790347       -0.1502539663
 H          1.9238360719       -1.7625036203        0.8094987472
 H         -2.3508817064       -4.3833107391       -1.0750376944
 H         -4.7144488238       -3.7376516137       -1.3003588917
 H         -5.4188949433       -1.4202235878       -0.9038338386
 H         -5.0661244918       -0.7739409392        1.7298331293
 H         -7.2944018674       -0.3003271392        2.6546319418
 H         -8.6126367508        1.6082367035        1.8051015704
 H         -7.6822801810        3.0398551015        0.0206525676
 H         -5.4574464887        2.5594859891       -0.9165398048
 H         -3.5546654341        2.7439100806        1.3151038911
 H         -2.0595209269        4.6446495742        0.8728138662
 H         -0.6224856231        4.6535155433       -1.1375507065
 H         -0.7060406916        2.7494085807       -2.7069780330
 H         -2.2095254386        0.8531036444       -2.2741369530
 H         -1.3699468749       -0.3486823417       -0.0330439803
