  85
 
 C          1.6623407054        3.6762189019       -1.9715173410
 C          2.4742359572        3.3166477718       -0.7180111417
 C          3.9600825956        3.4888668784       -1.0491005066
 C          2.1232489553        4.2830043204        0.4230377721
 C          2.1238981393        1.8973095844       -0.2942536787
 C          3.0726345065        0.8895764328       -0.2257672944
 C          2.7124100829       -0.4160427345        0.1169735972
 C          1.3721588073       -0.7295601336        0.4047223911
 C          0.4316101629        0.3157932698        0.4009453562
 C          0.8026033196        1.6014250338        0.0306429866
 N         -0.8904935373        0.0262778377        0.7259111953
 C         -1.7044460995        0.9827716938        1.3432058663
 C         -1.1584788431        1.9286677302        2.2112531902
 C         -1.9657689319        2.8646288795        2.8255237559
 C         -3.3324782197        2.8611154187        2.5980289198
 C         -3.8862236728        1.8928772978        1.7801725780
 C         -3.0876519524        0.9420625694        1.1623931298
 C         -3.6717273166       -0.1289405005        0.2730256502
 C         -5.1209056171       -0.4118476562        0.5917190150
 C         -5.6589958919       -0.8985940665        1.7648414687
 C         -7.0330038064       -1.0844883651        1.8393467080
 C         -7.8490749197       -0.7862975336        0.7577379847
 C         -7.3135394157       -0.2964758094       -0.4231167115
 C         -5.9427889431       -0.1093620743       -0.5031469200
 C         -5.1042985103        0.3757693670       -1.5887631613
 C         -5.4293555169        0.7977290053       -2.8675248977
 C         -4.4095308261        1.2103748798       -3.7104995764
 C         -3.0899854060        1.1985592584       -3.2853782028
 C         -2.7575886011        0.7760178562       -2.0045090321
 C         -3.7685698946        0.3684833337       -1.1611631778
 C         -2.8048742221       -1.3693863237        0.3390333634
 C         -3.3530634350       -2.6184872753        0.1140250724
 C         -2.5458982782       -3.7455577111        0.0682248158
 C         -1.1868852222       -3.6199587097        0.2559769287
 C         -0.5854264762       -2.3833792068        0.5081775770
 C         -1.4219606454       -1.2464156381        0.5292310636
 B          0.9390003396       -2.1595402641        0.6541022488
 C          2.0962879757       -3.1464072454        0.8882358244
 C          1.9488402585       -4.4449853789        1.3925566290
 C          3.0125256295       -5.3045130615        1.5488009554
 C          4.2867482686       -4.8784896305        1.1908025483
 C          4.4839339381       -3.5998470732        0.7235558053
 C          3.4086772591       -2.7081888932        0.5886889446
 N          3.6627905576       -1.4167268870        0.1628112245
 C          4.9974108092       -1.0736796900       -0.2146250138
 C          5.3955993867       -1.2107047077       -1.5378615859
 C          6.6837149415       -0.8640340424       -1.9083276542
 C          7.5731427256       -0.3799867037       -0.9631029926
 C          7.1750923266       -0.2431007882        0.3571152489
 C          5.8890920701       -0.5879462530        0.7344394804
 H          0.5937634420        3.6396106927       -1.7772900979
 H          1.8873583580        2.9799118248       -2.7773313360
 H          1.9127169649        4.6816547980       -2.3039872338
 H          4.1448850016        4.5171690679       -1.3540544337
 H          4.5831535104        3.2787160003       -0.1825167379
 H          4.2579804562        2.8370628937       -1.8675648483
 H          2.6736072184        4.0170059496        1.3236937948
 H          1.0610527033        4.2584891617        0.6508749867
 H          2.3878098467        5.3014122906        0.1456967695
 H          4.1032842656        1.1028464869       -0.4468221014
 H          0.0467495240        2.3696808965       -0.0212469499
 H         -0.0964281582        1.9198094880        2.4045350900
 H         -1.5261884666        3.5949039251        3.4888556861
 H         -3.9659036591        3.6005284195        3.0644257968
 H         -4.9535542162        1.8737186561        1.6160352985
 H         -5.0231038015       -1.1322398394        2.6069774007
 H         -7.4712572157       -1.4662808946        2.7500959265
 H         -8.9158563421       -0.9392146827        0.8378616083
 H         -7.9529405403       -0.0665981181       -1.2626572034
 H         -6.4561906772        0.8050078657       -3.2024706795
 H         -4.6445730642        1.5425650108       -4.7116302867
 H         -2.3080575221        1.5209015994       -3.9577637472
 H         -1.7255804416        0.7650075803       -1.6877176934
 H         -4.4160145290       -2.7112874811       -0.0553318762
 H         -2.9864859874       -4.7122364170       -0.1293019412
 H         -0.5601592063       -4.4955222871        0.1823377555
 H          0.9615879488       -4.7699612263        1.6854880172
 H          2.8632500242       -6.2998706463        1.9420979037
 H          5.1309410849       -5.5461000092        1.2913522550
 H          5.4842451088       -3.2802560793        0.4719961891
 H          4.6923005014       -1.5866289748       -2.2664691243
 H          6.9920043399       -0.9713887954       -2.9377172438
 H          8.5769193632       -0.1094082124       -1.2548839529
 H          7.8668425974        0.1344944697        1.0954642766
 H          5.5667800507       -0.4847393770        1.7603763253
