89
 xtb: 6.7.1 (edcfbbe)
C           -5.97292901628269       -2.83592557803230        0.10273857862479
C           -4.67587220923268       -3.42113855329578        0.67030102566275
C           -4.95595848960135       -3.90688187376878        2.10062477629519
C           -4.26001060043531       -4.60843962091529       -0.21112087622900
C           -3.54290121921658       -2.40856834248616        0.70625771610252
C           -2.27938499776860       -2.81258841875587        1.21121021841258
C           -1.22600033521512       -1.95637776840277        1.26034384682937
C           -1.34232621048973       -0.61342103232149        0.81656304258534
C           -0.26221985447979        0.27353123096666        0.84541580942243
C            1.05295815928979       -0.17757506508223        1.35840402613476
C            1.36132172911031       -0.05412490137900        2.70960401274153
C            2.59708274574595       -0.46150305843360        3.18128465164485
C            3.53340920650807       -1.00105440499514        2.31763600004542
C            3.23388512150240       -1.12518405443584        0.96367417456835
N            4.17806473187029       -1.67342194672216        0.08048145414360
C            5.49646338367180       -1.28040582282641       -0.03750214862784
C            6.16858238458864       -0.24054525763969        0.59026242140342
C            7.49773588846950       -0.04286351992539        0.26788321105679
C            8.14920362210657       -0.85206577945514       -0.66141995098893
C            7.47997990865529       -1.87376108570425       -1.30586744011768
C            6.14220416980489       -2.09101773845575       -1.00031300592164
C            5.15614712647337       -3.02024203883092       -1.47762707183699
C            5.18809641775011       -4.05971650480382       -2.39901256632043
C            4.03522044453477       -4.78814681718544       -2.61596448728381
C            2.86326943586428       -4.49904303587657       -1.91915173784592
C            2.80660087147911       -3.47090140863080       -0.99743729264706
C            3.95710816513847       -2.72301146064125       -0.78832602520015
C            1.99511489851332       -0.70985955100314        0.48799022976043
C           -0.41663018460054        1.59227030074220        0.39662285638821
C            0.66211910106182        2.50906036309543        0.41678024395207
C            0.53860357559832        3.80776280111997        0.00453155280480
C            1.74624584012777        4.73263482818757        0.05120115034982
C            2.24102712731763        4.83560333256900        1.50191651740631
C            2.85706193400512        4.14715396352503       -0.83415012313922
C            1.43220049823129        6.14602182502701       -0.44842645410582
C           -0.73320229522093        4.23540887211307       -0.44579966946957
C           -1.79747452140147        3.38618285521929       -0.48665412199542
C           -1.68631454938297        2.03133130412003       -0.08557009887050
C           -2.76824371719909        1.13902526266740       -0.12037554509523
C           -4.07685375730358        1.59342623158433       -0.63382395487335
C           -4.23949877611141        1.88291504820203       -1.98816704685278
C           -5.46102254623946        2.29591944485965       -2.47912695700065
C           -6.54693327342124        2.43076799045909       -1.61049522721132
C           -7.79911082211651        2.85142311252602       -2.10653764653590
N           -8.81868137981750        3.19335447357611       -2.50981916966777
C           -6.39235789710736        2.14850311662620       -0.25096805836835
C           -5.16626939575978        1.73275085416324        0.22581006779369
C           -2.61115738574419       -0.18244194549307        0.32381514990224
C           -3.67657921991546       -1.12004607884490        0.27460784000878
H           -6.76910478364033       -3.58810532407530        0.12324857965561
H           -6.34224109495934       -1.98972669996819        0.72314693793770
H           -5.85397708830049       -2.49146909864796       -0.90495996901532
H           -4.11324480875202       -4.38100718706473        2.55927992810895
H           -5.80577578875666       -4.60104800566189        2.12458181666428
H           -5.24995154571169       -3.04805612971428        2.75600674622976
H           -4.07170258122676       -4.27344398971528       -1.19794681106270
H           -3.40420107337693       -5.10410536128462        0.20647299442728
H           -5.09611581527549       -5.33463748797178       -0.22655306636456
H           -2.17000024386144       -3.82589728164195        1.58242999245441
H           -0.28848402121675       -2.29861665063223        1.65706701210776
H            0.61416238491061        0.32611044257537        3.39093507860826
H            2.81467808291346       -0.40600236089898        4.23812658287860
H            4.48358636480784       -1.35680706585691        2.68809007509416
H            5.65794412719192        0.40202326350274        1.32383129146984
H            8.03149537880706        0.77750017481531        0.77656803633624
H            9.18999594406087       -0.62844743372732       -0.86099976105332
H            7.99380140936584       -2.44683733405115       -2.03372701579655
H            6.12348265820677       -4.24977591541008       -2.94835226509502
H            4.07084876738160       -5.56268393580867       -3.36613295633478
H            2.00522455285284       -5.07740423055889       -2.14106910475375
H            1.90839522296011       -3.26374606719375       -0.47757301331233
H            1.77145383811359       -0.78467200968632       -0.56628301874789
H            1.61148390293727        2.11944776750401        0.77598742172606
H            1.46496719812760        5.20863125236501        2.12692049505262
H            3.10941961936525        5.48356777534746        1.54385267035689
H            2.55306634466706        3.84438086823640        1.87576765683880
H            3.73994485258150        4.76755991139337       -0.84021901768575
H            2.52124026319503        4.01199619617722       -1.87081880205445
H            3.17733677320942        3.13502856933965       -0.48968775045117
H            2.35450162827450        6.72685797427821       -0.41755650433024
H            0.69255880282889        6.60101252242366        0.14574110324919
H            1.11803024515528        6.10410690871351       -1.50310264377671
H           -0.86064463852945        5.23827680354320       -0.78130895142114
H           -2.74629880536892        3.74014022436976       -0.84034155092589
H           -3.40054328815909        1.75609557659039       -2.66055890214523
H           -5.58652628083514        2.50509773249552       -3.53396396092840
H           -7.22969287142458        2.27987190408544        0.41535601747836
H           -5.03930668941121        1.52947270900621        1.27676827037691
H           -4.62411876060933       -0.76920857392899       -0.11745709751683
