  59
 
 Br         4.8417311400       -1.6341298651        1.1261415262
 C          5.0539270051       -2.1523989306       -0.7438637060
 C          3.7107586281       -2.4615601045       -1.3786097423
 C          3.0553779333       -3.7023357837       -0.7739111963
 C          1.6235327164       -3.9410368488       -1.2586572938
 C          0.6549412863       -2.7852555708       -0.9975471253
 C          0.5237905330       -2.4211898937        0.4812588599
 C         -0.2211775381       -1.0853564831        0.6972436706
 C         -0.2854872585       -0.7998657581        2.2131061532
 C         -1.2272739790        0.3335462934        2.6230834406
 C         -0.7600463044        1.7116934107        2.1641138516
 C         -1.6503055910        2.8566932650        2.6477971400
 C         -3.1158771848        2.7617229809        2.2152142661
 C         -3.3230616240        2.4908466701        0.7367205532
 Br        -2.4130925444        3.7906853143       -0.3978277591
 C          0.4759119017        0.0056120288       -0.0805291827
 C          1.7492400289        0.4569208598        0.0416980589
 C          2.1938520794        1.4522639200       -0.8565542537
 Br         3.9951363000        2.0219012622       -0.7716225634
 C          1.3430834686        2.0033970771       -1.8439410840
 C          0.0637619024        1.5640066279       -1.9776144808
 C         -0.4106075570        0.5269516951       -1.1101670151
 C         -1.6248852508       -0.1287721954       -1.0356005199
 C         -2.8281027831        0.0112008126       -1.8023384225
 C         -3.9042703354       -0.7615584259       -1.4937707816
 C         -3.8372474461       -1.6951879550       -0.4349159069
 Br        -5.3620889464       -2.7463427353       -0.0358163782
 C         -2.6632418413       -1.8667170784        0.3345110604
 C         -1.5817385816       -1.1023137145        0.0422443620
 H          5.5444401458       -1.3087805744       -1.2278804066
 H          5.7158128426       -3.0178756132       -0.7428710230
 H          3.0591485808       -1.5949020952       -1.2558614317
 H          3.8689309209       -2.6118051335       -2.4502764739
 H          3.0559439219       -3.6160833403        0.3141513244
 H          3.6555873688       -4.5806526492       -1.0268647807
 H          1.2451141909       -4.8399818443       -0.7667417866
 H          1.6398578175       -4.1358829232       -2.3337972252
 H         -0.3280472394       -3.0648278473       -1.3850445527
 H          0.9765091376       -1.9084130968       -1.5625693047
 H         -0.0033161520       -3.2201911635        1.0058836455
 H          1.5096647354       -2.3157994875        0.9330449712
 H         -0.6161498427       -1.7129595723        2.7133335941
 H          0.7242402848       -0.5782401202        2.5636951825
 H         -2.2238242938        0.1221719168        2.2300832249
 H         -1.2991804136        0.3351788077        3.7139965190
 H         -0.7001383015        1.7416181625        1.0764203444
 H          0.2508661026        1.8847417645        2.5409843047
 H         -1.2318893416        3.7924260363        2.2688473641
 H         -1.6230371564        2.9039216094        3.7388078174
 H         -3.6154192713        3.6958627036        2.4855543045
 H         -3.6138746902        1.9543857888        2.7590876671
 H         -2.9317270305        1.5199885883        0.4384945787
 H         -4.3781315060        2.5516224640        0.4711713625
 H          2.4224719670        0.0802747009        0.7965272646
 H          1.7288455430        2.7795272171       -2.4867580739
 H         -0.5950744239        1.9878645806       -2.7174969484
 H         -2.8677201352        0.7298197416       -2.6054306284
 H         -4.8248046548       -0.6757230063       -2.0511025920
 H         -2.6516953013       -2.5939709273        1.1319618451
