  93
 
 F         -3.5345516606       -3.6326350862       -2.4022037662
 C         -3.3888035177       -4.0810144632       -1.1433437324
 F         -2.0950194921       -3.8490531098       -0.8209855459
 F         -3.5092301088       -5.4192707246       -1.2071586329
 C         -4.3368808518       -3.4470301703       -0.1706759122
 C         -4.7089061855       -4.1406899365        0.9775657384
 C         -5.5563225345       -3.5276270813        1.8899281296
 C         -6.0162379201       -2.2447729943        1.6698259372
 C         -5.6368819553       -1.5501442960        0.5156939826
 N         -6.0649989822       -0.2377162048        0.2958576499
 C         -5.2130297584        0.8677919481        0.0837436952
 C         -3.8139401827        0.9012166301        0.1945391901
 C         -3.0075653368       -0.0836662103        0.8332894731
 C         -1.6499907117        0.0061945109        0.8265145691
 C         -0.9634509430        1.0893768254        0.2141080531
 C          0.4642420105        1.1360266818        0.1650646709
 C          1.2425622342       -0.0445936091        0.2384067606
 C          2.6082145854       -0.0088466452        0.1703873727
 C          3.3089914058        1.2083202535        0.0643712903
 C          4.7565839975        1.2412923053        0.0195872477
 C          5.4898218152        0.1861911551       -0.5480587012
 C          6.8636547442        0.2028018713       -0.5796267473
 C          7.5763303044        1.2741148458       -0.0276418522
 C          9.0199948008        1.3424707683       -0.0335494187
 N          9.6780689634        2.4766335453       -0.0979225301
 C         11.0013639503        2.1484255257       -0.1385937020
 C         12.1301926811        2.9610572707       -0.2090604478
 C         13.3633933575        2.3452815934       -0.2155040951
 C         13.4898637866        0.9553458470       -0.1447580892
 C         12.3847022446        0.1294436527       -0.0779581151
 C         11.1407375245        0.7392996035       -0.0907949041
 N          9.8586315892        0.2426452884       -0.0243659273
 C          9.5260139077       -1.1093484651        0.1825800082
 C          8.7390875805       -1.4760306199        1.2702471894
 C          8.4320771087       -2.8083305382        1.4755846321
 C          8.9145304729       -3.7781826451        0.6110457758
 C          9.7045662976       -3.4126965295       -0.4662546396
 C         10.0112267067       -2.0812608873       -0.6857852843
 C          6.8531928705        2.3465081639        0.5119268192
 C          5.4803853798        2.3301562208        0.5352638558
 C          2.5414470678        2.3876596085        0.0052957975
 C          1.1739805047        2.3538226712        0.0342683622
 C         -1.7759615633        2.1237205479       -0.3289792043
 C         -3.1315760704        2.0363538181       -0.3397328879
 N         -5.9325584155        1.9674773745       -0.1913288615
 C         -7.2127305126        1.6187647465       -0.1197388421
 C         -8.3504241976        2.4654308203       -0.2685436194
 C         -8.1982128924        3.8382893510       -0.4833136429
 C         -9.3026653008        4.6531955471       -0.5883161393
 C        -10.5714675903        4.0956138683       -0.4722910908
 C        -10.7319975798        2.7406270372       -0.2659547106
 C         -9.6322559982        1.8780086352       -0.1665541728
 C         -9.7668435421        0.4390900105        0.0040404269
 C        -11.0194139920       -0.1799776532        0.0031568059
 C        -11.1654443787       -1.5472907206        0.1104381823
 C        -10.0392194117       -2.3624688823        0.2024360890
 C         -8.7901595640       -1.7980213833        0.2190877658
 C         -8.6139067960       -0.3993891731        0.1462703768
 C         -7.3523281068        0.2310789752        0.1595861517
 C         -4.7903781895       -2.1610692083       -0.4112913776
 H         -4.3420463436       -5.1400764838        1.1479073032
 H         -5.8475100777       -4.0548996660        2.7844998537
 H         -6.6622194107       -1.7616302491        2.3873589378
 H         -3.4748780952       -0.8865149699        1.3800612868
 H         -1.0802220556       -0.7452500964        1.3515583418
 H          0.7471745002       -1.0012676087        0.3076227834
 H          3.1626101191       -0.9336734194        0.2315909344
 H          4.9661294750       -0.6381996329       -1.0079552476
 H          7.3918078547       -0.6072477256       -1.0602036030
 H         12.0283126594        4.0340930204       -0.2514040858
 H         14.2583650274        2.9478997391       -0.2690738272
 H         14.4770455525        0.5172424974       -0.1412331019
 H         12.4876637429       -0.9434953655       -0.0134995917
 H          8.3712198465       -0.7146692175        1.9423394351
 H          7.8191579574       -3.0893906116        2.3187710555
 H          8.6754701639       -4.8175861348        0.7774898950
 H         10.0812349021       -4.1648743451       -1.1433208136
 H         10.6134881265       -1.7864274232       -1.5327045043
 H          7.4047826437        3.1793033388        0.9205746129
 H          4.9510922503        3.1521131443        0.9927647914
 H          3.0429252978        3.3384766688       -0.0976373525
 H          0.6275340469        3.2834160574       -0.0067902065
 H         -1.3037982059        2.9759434564       -0.7923684071
 H         -3.7362779994        2.8100392956       -0.7858739168
 H         -7.1954957652        4.2305103489       -0.5551260642
 H         -9.1873480147        5.7136520017       -0.7544828220
 H        -11.4440588544        4.7284850755       -0.5440793143
 H        -11.7359376347        2.3577275586       -0.1794202978
 H        -11.9114758233        0.4163758564       -0.0967176924
 H        -12.1519426940       -1.9857546153        0.1059571197
 H        -10.1479795933       -3.4354293181        0.2548667787
 H         -7.9241676652       -2.4367470977        0.2648009379
 H         -4.4932980212       -1.6308910806       -1.3032441722
