110

C      6.530923    3.018340   -4.862995
C      6.990111    2.184807   -3.645105
C      7.877563    1.042187   -4.185246
C      7.842851    3.111760   -2.752192
C      5.831351    1.595859   -2.820354
C      4.487078    1.825773   -3.131137
C      3.440000    1.281226   -2.372740
C      3.747211    0.459969   -1.272541
C      5.072836    0.238184   -0.904015
C      6.107263    0.799329   -1.689455
C      5.070517   -0.559517    0.277871
C      6.104883   -1.086962    1.089673
C      5.823731   -1.896675    2.204873
C      6.929123   -2.481437    3.102709
C      8.358017   -2.059333    2.691478
C      6.718947   -2.012693    4.559108
C      6.875656   -4.023537    3.052438
C      4.476032   -2.178542    2.472218
C      3.431176   -1.669231    1.689838
C      3.742957   -0.827147    0.607443
N      2.938792   -0.189926   -0.338813
C      1.511612   -0.187678   -0.341955
C      0.814249   -0.410204   -1.535985
C     -0.582050   -0.433548   -1.538266
C     -1.287479   -0.208471   -0.348238
N     -2.706569   -0.219566   -0.394809
C     -3.483475   -1.282614   -0.841834
C     -3.133511   -2.564098   -1.298397
C     -4.156830   -3.458182   -1.645259
C     -5.511990   -3.121472   -1.538332
C     -6.643505   -4.096210   -1.912276
C     -6.145373   -5.462064   -2.436846
C     -7.518622   -4.375420   -0.671257
C     -7.519090   -3.474880   -3.022256
C     -5.826695   -1.833165   -1.054186
C     -4.817678   -0.908743   -0.697978
C     -4.843440    0.427430   -0.195987
C     -5.886791    1.324431    0.129572
C     -5.621237    2.644527    0.553699
C     -6.788074    3.583865    0.909344
C     -6.341003    4.985388    1.383489
C     -7.625006    2.964845    2.050197
C     -7.687129    3.784889   -0.329402
C     -4.281457    3.046595    0.612854
C     -3.226493    2.179046    0.297296
C     -3.524722    0.855475   -0.063934
C     -0.594600    0.029588    0.850255
C     -1.289812    0.105851    2.154626
O     -1.969596   -0.855127    2.500624
C     -1.156428    1.272194    3.049026
C     -1.748221    1.258123    4.296067
N     -1.678061    2.285971    5.173609
C     -0.994514    3.362585    4.758728
N     -0.387556    3.496333    3.568244
C     -0.487199    2.436744    2.734397
C      0.808580    0.018883    0.853314
H      7.390390    3.408077   -5.421693
H      5.928672    3.881886   -4.557500
H      5.937481    2.417630   -5.562127
H      8.690453    1.433706   -4.808041
H      8.342801    0.461976   -3.380912
H      7.293503    0.345491   -4.798248
H      8.303341    2.573607   -1.916428
H      8.656926    3.572151   -3.324213
H      7.234703    3.919542   -2.328005
H      4.204810    2.448338   -3.976778
H      2.415280    1.518317   -2.641521
H      7.134663    0.606004   -1.392272
H      7.125812   -0.848403    0.810329
H      8.482689   -0.970733    2.726493
H      9.107131   -2.491693    3.365729
H      8.604062   -2.399369    1.678767
H      5.770514   -2.367682    4.976812
H      6.718520   -0.918164    4.624812
H      7.515613   -2.385827    5.213356
H      7.674856   -4.466697    3.658064
H      5.927792   -4.417982    3.434719
H      6.993598   -4.389015    2.025400
H      4.206697   -2.822486    3.308229
H      2.408991   -1.951281    1.923286
H      1.340228   -0.617858   -2.466239
H     -1.107969   -0.613131   -2.474943
H     -2.096643   -2.879177   -1.367777
H     -3.847944   -4.440639   -1.993616
H     -6.986501   -6.116829   -2.694727
H     -5.536180   -5.348980   -3.341216
H     -5.546826   -5.989525   -1.684994
H     -6.919854   -4.790454    0.148201
H     -8.006567   -3.469412   -0.295492
H     -8.313067   -5.094939   -0.901609
H     -8.311952   -4.165261   -3.333199
H     -8.009722   -2.551371   -2.695988
H     -6.920033   -3.233902   -3.908451
H     -6.862764   -1.525631   -0.942014
H     -6.910372    0.971895    0.035705
H     -5.778246    5.514617    0.605710
H     -7.205376    5.611433    1.635762
H     -5.712729    4.926286    2.279950
H     -8.082003    2.012340    1.760553
H     -8.441447    3.632836    2.348791
H     -7.006410    2.777364    2.935935
H     -7.115256    4.197534   -1.169024
H     -8.139685    2.847023   -0.669643
H     -8.508966    4.477473   -0.113079
H     -4.011551    4.058723    0.904923
H     -2.206756    2.546103    0.322602
H     -2.315852    0.397808    4.643991
H     -0.926794    4.199358    5.445554
H      0.004423    2.587978    1.778762
H      1.346266    0.177188    1.786115
