  52
 
 C         -5.0728368850        0.0000186919       -0.7119971787
 C         -3.9331112968        0.0000072492        0.3240467399
 C         -4.5107448377       -0.0000103601        1.7520857828
 C         -3.1041848494        1.2574670866        0.1360503768
 C         -3.7089146638        2.5012911754        0.2600392735
 C         -3.0048267866        3.6809966102        0.1005203287
 C         -1.6536852101        3.6283005189       -0.1913484680
 C         -1.0268376685        2.4060602831       -0.3190209617
 C         -1.7376762705        1.2132006143       -0.1592127083
 N         -1.0785524750        0.0000175219       -0.2946020111
 C          0.3079266570        0.0000226738       -0.6038933663
 C          0.7253081733        0.0000681226       -1.9391586134
 C          2.0674334262        0.0000736953       -2.2333207198
 C          3.0282358232        0.0000323851       -1.2160560307
 C          4.4608826255        0.0000378836       -1.5395237890
 O          4.8835616999        0.0000809662       -2.6902519508
 C          5.3370460058       -0.0000131391       -0.3628040502
 C          6.7289831493       -0.0000168424       -0.5095357762
 C          7.5524284104       -0.0000637411        0.5920811825
 C          6.9993252046       -0.0001077393        1.8708656570
 C          5.6323058867       -0.0001050498        2.0428743754
 C          4.7930618672       -0.0000575506        0.9277284004
 O          3.4576049880       -0.0000570560        1.1636506594
 C          2.6018295202       -0.0000140137        0.1184341483
 C          1.2391417913       -0.0000179212        0.4184902816
 C         -1.7376730098       -1.2131701188       -0.1592388725
 C         -1.0268331246       -2.4060246552       -0.3190791528
 C         -1.6536788859       -3.6282692375       -0.1914388294
 C         -3.0048201678       -3.6809749919        0.1004295278
 C         -3.7089096971       -2.5012746758        0.2599789100
 C         -3.1041819573       -1.2574463965        0.1360214625
 H         -5.6997203691       -0.8800078561       -0.5991872557
 H         -4.6588611527        0.0000360789       -1.7190195193
 H         -5.6997270344        0.8800369581       -0.5991595617
 H         -3.7008179186       -0.0000239423        2.4797527794
 H         -5.1241304156        0.8805565968        1.9217197678
 H         -5.1241379109       -0.8805768918        1.9216949827
 H         -4.7622568768        2.5581206517        0.4890354513
 H         -3.5076467735        4.6309210896        0.2032306388
 H         -1.0839088538        4.5368931777       -0.3204226444
 H          0.0273146941        2.3714931890       -0.5484811658
 H         -0.0134948065        0.0000993880       -2.7254684411
 H          2.4200852826        0.0001092425       -3.2539068060
 H          7.1246439214        0.0000179574       -1.5144448295
 H          8.6240325626       -0.0000667789        0.4675242207
 H          7.6450239023       -0.0001451674        2.7356210646
 H          5.1852669533       -0.0001386894        3.0244275750
 H          0.9271999225       -0.0000539468        1.4512599290
 H          0.0273187169       -2.3714501193       -0.5485404397
 H         -1.0839014287       -4.5368576126       -0.3205383897
 H         -3.5076389318       -4.6309028754        0.2031147942
 H         -4.7622519260       -2.5581114391        0.4889732220
