  64
 
 C         -6.5192583366       -1.5406477942        0.7394166033
 C         -5.5909068858       -0.4778167060        0.1227804166
 C         -6.4223058944        0.6476510279       -0.5204688439
 C         -4.7376163508        0.1156243818        1.2258688168
 C         -5.3496445835        0.7496037427        2.2984388954
 C         -4.6230555350        1.2894922660        3.3433210964
 C         -3.2425405484        1.1875615739        3.3337160359
 C         -2.6079340731        0.5653580497        2.2808856409
 C         -3.3394402486        0.0367062665        1.2111510981
 N         -2.6743369497       -0.5713221320        0.1608630265
 C         -1.2531624027       -0.6253108870        0.1797280736
 C         -0.6085983190       -1.8199964615        0.5276059973
 C          0.7592535195       -1.8653875363        0.5347021511
 C          1.5229953742       -0.7320966046        0.2085454286
 C          0.8803125886        0.4813539308       -0.1323543475
 C         -0.5210329512        0.4961635132       -0.1440237745
 C          1.6778056399        1.6408067599       -0.4538848632
 C          1.1160921308        2.8785597018       -0.7784153572
 C          1.9107184459        3.9726047422       -1.0809717871
 C          1.3074834223        5.2069299692       -1.4016114499
 N          0.8162508677        6.2109461889       -1.6620299362
 C          3.3142961854        3.8602082234       -1.0691206681
 C          3.8835874912        2.6597601856       -0.7521122287
 C          3.0926151363        1.5375584176       -0.4392863897
 C          3.7364224019        0.3099927366       -0.1076521580
 N          5.0580565183        0.2046576759       -0.0971230474
 C          5.6811346848       -0.9327390096        0.2097665233
 C          7.0688055392       -1.0536410901        0.2223823179
 C          7.6731394319       -2.2540769486        0.5454920855
 C          6.9041059616       -3.3642452086        0.8649943021
 C          5.5238323857       -3.2812464569        0.8644450563
 C          4.8804559677       -2.0893418022        0.5444681394
 N          3.5508111492       -1.9664444638        0.5341852484
 C          2.9492604600       -0.8317464377        0.2236938153
 C         -3.3500392982       -1.1423116526       -0.9030101477
 C         -2.6256130016       -1.7234232398       -1.9501947741
 C         -3.2707505909       -2.3098429385       -3.0170967530
 C         -4.6541869727       -2.3215481055       -3.0642000228
 C         -5.3721958574       -1.7296169939       -2.0417127381
 C         -4.7494266927       -1.1313725806       -0.9549752873
 H         -7.1517688941       -1.1045330958        1.5073293448
 H         -5.9260219449       -2.3329041340        1.1922974418
 H         -7.1601490418       -1.9823203880       -0.0183277757
 H         -7.0604526745        0.2565508481       -1.3077956390
 H         -5.7610028777        1.3953224374       -0.9542916706
 H         -7.0526095575        1.1346018097        0.2181955857
 H         -6.4258590056        0.8265517475        2.3255203708
 H         -5.1309376131        1.7785188844        4.1601897608
 H         -2.6579220268        1.5908717829        4.1466104676
 H         -1.5323643985        0.4810479277        2.2841203264
 H         -1.1994725413       -2.6870961737        0.7806189632
 H          1.2863711180       -2.7704921909        0.7941331250
 H         -1.0613304643        1.3923304068       -0.4053513657
 H          0.0454708185        3.0101676593       -0.7974934555
 H          3.9195418247        4.7215402235       -1.3082542942
 H          4.9559509852        2.5403670922       -0.7315338464
 H          7.6560439723       -0.1838240743       -0.0278572703
 H          8.7501268272       -2.3246192913        0.5478185031
 H          7.3821043043       -4.2988021039        1.1156896259
 H          4.9142276261       -4.1368973459        1.1103399587
 H         -1.5471753704       -1.7088789392       -1.9245306062
 H         -2.6919120376       -2.7548795059       -3.8121886552
 H         -5.1705731026       -2.7802542313       -3.8932731090
 H         -6.4499818529       -1.7354182315       -2.0987223351
