  88
 
 O          6.6691925161       -3.6674479461       -1.4732745383
 C          6.4879358519       -2.5572896814       -0.8859458812
 C          7.6460448959       -1.8026677273       -0.3926968044
 C          8.7988139125       -2.4999602124       -0.0059765634
 C          9.9249214110       -1.8286106048        0.4195097127
 C          9.9405047977       -0.4408987474        0.4537002351
 C          8.8195324407        0.2643534554        0.0378436269
 C          7.6874978066       -0.4020368699       -0.3842989358
 C          5.1548852949       -2.0354985363       -0.6982635631
 C          4.8120520610       -1.1000247512        0.3043147640
 C          3.5222739946       -0.6612200951        0.4515315650
 C          2.5013863339       -1.1447671068       -0.3810630894
 N          1.1910142340       -0.6768183517       -0.2380457482
 C          0.8223781802        0.6448814392       -0.1573491414
 C          1.5980389240        1.7945929072       -0.2491911294
 C          0.9708097300        3.0181602639       -0.1587202338
 C         -0.4238870306        3.1215577937        0.0193550407
 N         -1.0183040683        4.3737676262        0.1155834773
 C         -2.3070946676        4.5868701794       -0.3907505580
 C         -3.2026931782        5.4128357437        0.2902302130
 C         -4.4712944052        5.6250331985       -0.2140392641
 C         -4.8678655819        5.0159783646       -1.3945233978
 C         -3.9815078886        4.1950180151       -2.0744730836
 C         -2.7083014773        3.9813853772       -1.5829021115
 C         -0.3366855448        5.4354353060        0.7251620790
 C         -0.4347838116        6.7267423283        0.2054381186
 C          0.2323911892        7.7716729542        0.8150596393
 C          1.0062009390        7.5470081159        1.9431781253
 C          1.1061298430        6.2656401311        2.4628844661
 C          0.4398799964        5.2143327089        1.8637023259
 C         -1.2088312461        1.9672127056        0.0858975201
 C         -0.5906199948        0.7341359863       -0.0128226728
 C         -1.0808074113       -0.6131314101       -0.0197183779
 C         -2.3469082173       -1.1595345856        0.0777883712
 C         -2.4854448672       -2.5502005899        0.0560987062
 N         -3.7491975175       -3.1215277637        0.1418701301
 C         -4.8559862335       -2.4712157323       -0.4194748810
 C         -6.0909108663       -2.4944422361        0.2306189651
 C         -7.1811495783       -1.8559113729       -0.3283079647
 C         -7.0583444060       -1.1834973679       -1.5343633171
 C         -5.8336472247       -1.1575197557       -2.1835476581
 C         -4.7385807340       -1.7978410912       -1.6367538398
 C         -3.9354182551       -4.3440483374        0.8010485122
 C         -4.8304048086       -5.2872329251        0.2945461362
 C         -5.0216385754       -6.4856210520        0.9547189403
 C         -4.3248348775       -6.7630247768        2.1206618804
 C         -3.4330737818       -5.8296216554        2.6259788371
 C         -3.2376292532       -4.6262254357        1.9763646813
 C         -1.3438074975       -3.3711101083       -0.0424506636
 C         -0.0773870282       -2.8370583039       -0.1466251926
 C          0.0600815693       -1.4538132170       -0.1577022570
 C          2.8146844374       -2.1102882478       -1.3505305188
 C          4.1024605712       -2.5486657707       -1.4940165676
 H          8.7768433813       -3.5805957464       -0.0450886093
 H         10.7989330062       -2.3871175383        0.7254671228
 H         10.8232674156        0.0858291715        0.7858412510
 H          8.8356716136        1.3456876376        0.0332956205
 H          6.8375950371        0.1584770883       -0.7468394746
 H          5.5724271034       -0.7579084068        0.9905275311
 H          3.2729078828        0.0307768020        1.2434720856
 H          2.6623370014        1.7343456564       -0.4147301487
 H          1.5525499063        3.9223669136       -0.2487626800
 H         -2.8989048849        5.8770595419        1.2167762974
 H         -5.1572478748        6.2632411206        0.3228948344
 H         -5.8608248844        5.1822877460       -1.7835730294
 H         -4.2802960277        3.7250371929       -2.9996237119
 H         -2.0118880225        3.3563804038       -2.1221266714
 H         -1.0268852651        6.9003414358       -0.6808831893
 H          0.1542371592        8.7663069309        0.4019781262
 H          1.5277584026        8.3656784547        2.4153064851
 H          1.7007940568        6.0845647688        3.3459727518
 H          0.5067175136        4.2186997642        2.2766107121
 H         -2.2758569422        2.0388019032        0.2268442033
 H         -3.2126708804       -0.5262307016        0.1922514547
 H         -6.1845085216       -3.0066909819        1.1766685758
 H         -8.1307040045       -1.8770467496        0.1854912943
 H         -7.9122666894       -0.6844623264       -1.9665664342
 H         -5.7322642606       -0.6439314521       -3.1279874250
 H         -3.7894274131       -1.7921088734       -2.1517549463
 H         -5.3644901363       -5.0768315026       -0.6202350367
 H         -5.7130144388       -7.2108621580        0.5521469974
 H         -4.4758609329       -7.7011379010        2.6327426175
 H         -2.8912475693       -6.0363692299        3.5370003568
 H         -2.5535987630       -3.8932992159        2.3779242851
 H         -1.4699616893       -4.4424763110       -0.0519496085
 H          0.7833673913       -3.4827875107       -0.2211096724
 H          2.0381715280       -2.4758959112       -2.0069298967
 H          4.3593864525       -3.2850981553       -2.2422974196
