  74
 
 C          7.3570777627       -1.0534689494        1.3778691068
 C          5.9820247376       -0.4368033430        1.1231360603
 C          5.6913282737        0.5750505798        2.2530766556
 C          5.9083481069        0.3006032558       -0.1973140801
 C          7.0140213790        0.6935432007       -0.9342589529
 C          6.8736002624        1.4224555484       -2.1031089895
 C          5.6104456786        1.7580299499       -2.5616223805
 C          4.4951053010        1.3622646356       -1.8539115499
 C          4.6337027802        0.6432695838       -0.6667601470
 N          3.5043115750        0.1891310755        0.0177113849
 C          2.3435718633        0.9593145732        0.0109687142
 C          2.4218714842        2.3432945842        0.0854843334
 C          1.2483068424        3.0873835086        0.0666737519
 C          0.0003426154        2.4507566378        0.0118557426
 C         -1.2522105202        3.0788991289       -0.0322975834
 C         -2.4203069202        2.3266497818       -0.0655248188
 C         -2.3317556432        0.9421139967       -0.0158149498
 N         -3.4859627406        0.1628574805       -0.0383497906
 C         -4.6233713776        0.5987437201        0.6450083008
 C         -4.4983686903        1.3004402244        1.8438962405
 C         -5.6215856705        1.6775446517        2.5493913681
 C         -6.8789846363        1.3401251766        2.0766543968
 C         -7.0058397701        0.6279984719        0.8959705428
 C         -5.8920931852        0.2541293440        0.1612619636
 C         -5.9506933336       -0.4643894834       -1.1703232492
 C         -5.6576575373        0.5653742377       -2.2833137984
 C         -7.3196718312       -1.0860456881       -1.4448394408
 C         -4.8262158212       -1.4823698500       -1.1744755219
 C         -4.9465474435       -2.7546538115       -1.7087421190
 C         -3.8594089025       -3.6095573947       -1.7816627854
 C         -2.6222721907       -3.1907601769       -1.3248974647
 C         -2.4827520201       -1.9361757075       -0.7669696963
 C         -3.5777851356       -1.0824990299       -0.6710559011
 N         -1.1332188661        0.3385236353        0.0214598179
 C          0.0057398459        1.0060071427       -0.0012364053
 N          1.1495339299        0.3474143606       -0.0365410073
 C          3.6091500941       -1.0633279828        0.6337343418
 C          2.5199779063       -1.9247660143        0.7278467171
 C          2.6717239085       -3.1857050145        1.2679008618
 C          3.9151431492       -3.6028390364        1.7089138528
 C          4.9964175213       -2.7403030705        1.6384963235
 C          4.8640347647       -1.4618939856        1.1220089274
 H          7.3747618179       -1.5467059446        2.3462723392
 H          8.1178841980       -0.2773104120        1.4002259082
 H          7.6094208307       -1.7763174430        0.6052662790
 H          4.7172689561        1.0398230905        2.1230761168
 H          5.7029251096        0.0687147136        3.2160293217
 H          6.4491504231        1.3560506397        2.2569879759
 H          8.0068641710        0.4407873652       -0.5993542195
 H          7.7503209672        1.7256971815       -2.6550774640
 H          5.4935905328        2.3167257040       -3.4780042812
 H          3.5059180495        1.5941829758       -2.2190836704
 H          3.3841996469        2.8253132440        0.1569244246
 H          1.2860911173        4.1648803849        0.1051182430
 H         -1.2979978290        4.1566155661       -0.0513741120
 H         -3.3859913405        2.8029814794       -0.1290748137
 H         -3.5134850765        1.5337293781        2.2197031549
 H         -5.5153167552        2.2230441671        3.4749702788
 H         -7.7617782456        1.6288084559        2.6267534117
 H         -7.9944082221        0.3732828922        0.5500739406
 H         -6.4205756570        1.3414082846       -2.2822079213
 H         -4.6877734642        1.0345984972       -2.1389392113
 H         -5.6582750251        0.0727810275       -3.2534386782
 H         -7.5734272527       -1.8215898214       -0.6847798302
 H         -7.3264850492       -1.5653395521       -2.4203617403
 H         -8.0852719623       -0.3144746687       -1.4620557794
 H         -5.8960466200       -3.0952551289       -2.0886023104
 H         -3.9790816431       -4.5940870392       -2.2085520413
 H         -1.7651336628       -3.8435601005       -1.3935698659
 H         -1.5260455191       -1.5976483742       -0.3992532816
 H          1.5582681582       -1.5873321442        0.3722913205
 H          1.8191300167       -3.8445724383        1.3351679495
 H          4.0443061230       -4.5921015456        2.1218614599
 H          5.9510209913       -3.0799964706        2.0061747871
