  90
 
 N        -11.7469818966       -2.2404873553       -0.8241446526
 C        -10.7437538945       -1.7177444522       -0.6316339735
 C         -9.5296980612       -1.0374983997       -0.3850309747
 N         -8.3790432561       -1.6900308391       -0.5889768415
 C         -7.2836074271       -0.9995255259       -0.3491220490
 C         -7.3240389366        0.3753073577        0.0957098093
 N         -8.4583908441        1.0110287750        0.3028511192
 C         -9.5692478799        0.3029709870        0.0656587836
 C        -10.8214508184        0.9233234177        0.2762331321
 N        -11.8536337277        1.3975097230        0.4390598675
 C         -5.9701679354        0.8336659677        0.2485338515
 C         -5.3904408484        2.0242097841        0.6309805629
 C         -4.0012218215        2.0953728994        0.6183878055
 C         -3.1577544221        1.0414346535        0.2633308305
 C         -1.7320740293        1.3831030909        0.2188627423
 C         -0.9344970634        1.1455588495       -0.9010040522
 C          0.3471091943        1.6489002663       -0.9787719191
 C          0.8802962392        2.4096797098        0.0662983880
 N          2.1272906027        3.0136728952       -0.0296022583
 C          2.3408828189        4.2644875535        0.5759562854
 C          1.3630114405        5.2566554211        0.5168033263
 C          1.5834569137        6.4857322071        1.1087066602
 C          2.7795834767        6.7471160446        1.7578058179
 C          3.7565273307        5.7660545270        1.8136204243
 C          3.5419515369        4.5311519835        1.2313537674
 C          3.1853759064        2.4252330016       -0.7367112659
 C          3.4315855506        1.0565939403       -0.6447672606
 C          4.5163395958        0.5060909151       -1.3011328393
 C          5.3561122421        1.2991475049       -2.0655503193
 C          5.1053307184        2.6577016285       -2.1716874419
 C          4.0288931953        3.2199108092       -1.5133766543
 C          0.1063690266        2.5926763648        1.2168278048
 C         -1.1755324727        2.1015397865        1.2818752494
 C         -3.7286824639       -0.2259936605       -0.0695257535
 C         -3.0882633702       -1.4667492448       -0.3780519260
 C         -1.6492224297       -1.7178226624       -0.2755703438
 C         -1.0048185037       -2.4463777945       -1.2788395475
 C          0.3193287167       -2.8005004107       -1.1687245560
 C          1.0621909524       -2.4361804269       -0.0410948829
 N          2.3929834440       -2.8059668364        0.0876820477
 C          2.9506705175       -3.0133711197        1.3645889179
 C          2.2452783594       -3.7095870435        2.3444023284
 C          2.8086003754       -3.9166676503        3.5894794662
 C          4.0798972014       -3.4423414389        3.8711421916
 C          4.7866937470       -2.7553568701        2.8973738102
 C          4.2282953355       -2.5377911734        1.6518221569
 C          3.1877604744       -3.0811636252       -1.0366834856
 C          4.1052591483       -4.1310998929       -1.0051214958
 C          4.9005904793       -4.3956413285       -2.1041793073
 C          4.7899475094       -3.6279675678       -3.2522991950
 C          3.8785603600       -2.5849926457       -3.2901184379
 C          3.0858315563       -2.3069292319       -2.1927429888
 C          0.4207335178       -1.7020540413        0.9637095004
 C         -0.9080668606       -1.3579931657        0.8502412487
 C         -3.8675930745       -2.5614695371       -0.7542306835
 C         -5.2572778864       -2.5551161224       -0.8150884105
 C         -5.9051838116       -1.3914161973       -0.4596935237
 C         -5.1337844449       -0.2591074996       -0.0935969246
 H         -5.9887842566        2.8788837056        0.9057855996
 H         -3.5420717539        3.0418453688        0.8633065278
 H         -1.3453853018        0.6076020070       -1.7419579687
 H          0.9340193741        1.4922161359       -1.8716526538
 H          0.4347723253        5.0586308124        0.0007996628
 H          0.8199222463        7.2479154884        1.0536312085
 H          2.9496265971        7.7098931338        2.2157759160
 H          4.6904905551        5.9608197754        2.3202093711
 H          4.3020582241        3.7651400545        1.2806622343
 H          2.7789137788        0.4372809808       -0.0466357025
 H          4.7119273367       -0.5517427863       -1.2163526287
 H          6.2010034865        0.8592769848       -2.5736375330
 H          5.7493551683        3.2835658201       -2.7720651097
 H          3.8349475394        4.2797165659       -1.5924481535
 H          0.5187827546        3.1400147356        2.0513189177
 H         -1.7551866854        2.2543870023        2.1805543111
 H         -1.5511129701       -2.7285842770       -2.1668952735
 H          0.7819299942       -3.3837003998       -1.9502309554
 H          1.2593144610       -4.0907573099        2.1210806048
 H          2.2550633698       -4.4608434336        4.3407155440
 H          4.5179930673       -3.6097865230        4.8435946263
 H          5.7773064091       -2.3809601262        3.1098254626
 H          4.7788802534       -1.9999812092        0.8943737291
 H          4.1891255133       -4.7395068163       -0.1165039899
 H          5.6056805427       -5.2130458524       -2.0652014387
 H          5.4099238904       -3.8403266722       -4.1102307540
 H          3.7912142495       -1.9728930530       -4.1758285836
 H          2.3912541543       -1.4811725430       -2.2222663819
 H          0.9718104674       -1.4105183245        1.8453532428
 H         -1.3878568165       -0.8278914612        1.6585252166
 H         -3.3574298416       -3.4877514793       -0.9732146900
 H         -5.8057934358       -3.4386176088       -1.1026162897
