  70
 
 C          4.0799335110       -3.1879164995        0.8944437773
 C          4.5989846982       -1.9120041032        0.6631403878
 C          3.7065082541       -0.9032720792        0.2995024204
 N          4.1371353776        0.4052776731        0.1140302598
 C          3.6728256618        1.2690125075       -0.8694482110
 C          2.6827576362        1.0772676502       -1.8208549394
 C          2.4328850300        2.1071632005       -2.7098195440
 C          3.1523916291        3.2987700165       -2.6641731200
 C          4.1468310325        3.4913483084       -1.7240005916
 C          4.4112055874        2.4720648164       -0.8190246780
 C          5.3419360720        2.3395772960        0.2694842067
 C          6.2875068824        3.1962882331        0.8158154719
 C          6.9992599388        2.7778017553        1.9240228489
 C          6.7543187042        1.5340478452        2.4988485027
 C          5.8186677095        0.6634048833        1.9683441904
 C          5.1325644071        1.0570011506        0.8277328959
 N          2.4220775821       -1.1335359063        0.0679635435
 C          1.9370149132       -2.3764125389        0.2193419863
 N          0.5942986624       -2.5469180426       -0.0526310217
 C         -0.3769961631       -1.5747352439        0.0959177183
 C         -0.2663680174       -0.2691082275        0.5310541888
 C         -1.4098821949        0.5148765481        0.5863650798
 C         -2.6671332114       -0.0195687119        0.2246474778
 N         -3.7930649142        0.7971595744        0.2904331416
 C         -5.0084544286        0.4525590650        0.8506904253
 C         -5.3763275112       -0.7085226203        1.5183464181
 C         -6.6633069760       -0.7837246580        2.0217705945
 C         -7.5607790187        0.2710244497        1.8805820581
 C         -7.1890994160        1.4443703179        1.2447956042
 C         -5.9057423767        1.5407051383        0.7309683177
 C         -5.1866399016        2.5892683893        0.0530429310
 C         -5.5331370279        3.8639866201       -0.3655922356
 C         -4.5850149198        4.6210577151       -1.0341691289
 C         -3.3178940129        4.1106302533       -1.3015534880
 C         -2.9511269643        2.8394123636       -0.8953980494
 C         -3.8862797678        2.0880679243       -0.1949188833
 C         -2.7983388701       -1.3383105574       -0.1932300115
 C         -1.6525725834       -2.1357756962       -0.2644258540
 C         -1.4209385818       -3.4680203764       -0.6530214972
 N         -2.2778989996       -4.4133032364       -1.0854486812
 C         -1.7627517346       -5.5742694832       -1.4534248105
 C         -0.4110773713       -5.8627844278       -1.4489974176
 C          0.5079181361       -4.9008794878       -0.9705643536
 C         -0.0121312316       -3.7089161151       -0.5355334737
 C          2.7367171720       -3.4265177117        0.6889815826
 H          4.7289529421       -3.9811917688        1.2331620732
 H          5.6556571715       -1.7192767209        0.7344525871
 H          2.1201602992        0.1586299821       -1.8543163399
 H          1.6615636485        1.9822037614       -3.4556661498
 H          2.9281835065        4.0805937781       -3.3748764507
 H          4.7082030805        4.4127861652       -1.6898613249
 H          6.4529198339        4.1726196671        0.3862966350
 H          7.7416849782        3.4272201850        2.3634716050
 H          7.3004632424        1.2426042177        3.3839071813
 H          5.6200719762       -0.2814266119        2.4501569248
 H          0.6890011204        0.1336679901        0.8245901669
 H         -1.3539617402        1.5224876037        0.9637136943
 H         -4.6806564594       -1.5223751725        1.6509844613
 H         -6.9744904246       -1.6788328221        2.5391454963
 H         -8.5572790482        0.1747713531        2.2849806040
 H         -7.8801181287        2.2684738168        1.1558488635
 H         -6.5220966599        4.2536353559       -0.1793537530
 H         -4.8340384417        5.6183850707       -1.3646580274
 H         -2.6058320961        4.7161167181       -1.8419658109
 H         -1.9746050357        2.4438844698       -1.1270316782
 H         -3.7485429050       -1.7299582364       -0.5187970305
 H         -2.4827402475       -6.3123982935       -1.7846149507
 H         -0.0570524177       -6.8191853362       -1.7976940643
 H          1.5636935919       -5.1215324591       -0.9762885759
 H          2.2983979257       -4.3816407507        0.9255953157
