  106
 
 C         -5.2453311815        5.4482326198        2.1289801760
 C         -4.3201410170        4.7374296846        1.1365502625
 C         -4.5599156140        5.3399297796       -0.2564197678
 C         -2.8687964402        4.9919643560        1.5712156425
 C         -4.5629860859        3.2366208537        1.0723405127
 C         -5.5448090902        2.5962932894        1.8222815419
 C         -5.7509914748        1.2269639849        1.7456293009
 C         -4.9597249442        0.4733873528        0.8980200595
 C         -3.9695420215        1.1055615861        0.1334781151
 C         -3.7702306114        2.4630446581        0.2202965393
 C         -3.2140016698        0.0941381096       -0.7099848164
 C         -3.4018071830        0.2968733173       -2.1958273541
 C         -4.4857617558        0.9986438573       -2.7117083122
 C         -4.6390389241        1.0954501091       -4.0852483234
 C         -3.7058320866        0.4736564264       -4.8991800856
 N         -2.6751419292       -0.2070975446       -4.4232780411
 C         -2.5320642705       -0.2900628012       -3.1129773468
 C         -1.7551226367        0.1233536714       -0.2946657360
 C         -0.8938414333        1.0686148862       -0.8627454528
 C          0.4243386131        1.1905232639       -0.4705161707
 C          0.8884387195        0.3471582149        0.5286778507
 C          0.0375074546       -0.6259092018        1.0982743130
 C         -1.2855746732       -0.7262115831        0.6922201300
 C          0.8286486998       -1.3547072591        2.0495751341
 C          0.5521220087       -2.4034878100        2.9173039378
 C          1.5616624707       -2.8683770267        3.7366011192
 C          2.8285482233       -2.2886216720        3.7099873081
 C          3.1250454080       -1.2436361774        2.8560187829
 C          2.1244895250       -0.7902155715        2.0088796885
 N          2.1480921385        0.2376032210        1.0857764641
 C          3.2532779993        1.0407203423        0.7688787690
 C          3.1279294240        2.4279473366        0.7656420805
 C          4.2145469468        3.2160998702        0.4329915414
 C          5.4313989073        2.6404995241        0.1153656257
 C          5.5626092875        1.2540070033        0.1185922496
 N          6.7892932077        0.6637194299       -0.2206466769
 C          7.4700786962       -0.2812757384        0.5214843446
 C          7.1597481540       -0.8246976485        1.7595344245
 C          8.0367575687       -1.7435709656        2.3031712686
 C          9.2063632874       -2.1104683409        1.6405740783
 C          9.5348941094       -1.5541268808        0.4201499269
 C          8.6668484187       -0.6293338708       -0.1464911399
 C          8.6994838400        0.1467877781       -1.3548337283
 C          9.5974721800        0.2330431688       -2.4112985197
 C          9.3114787433        1.0906665363       -3.4549950531
 C          8.1399319649        1.8453012227       -3.4612605987
 C          7.2311793911        1.7760960536       -2.4223011743
 C          7.5247587138        0.9339262104       -1.3589596054
 C          4.4712134950        0.4548501440        0.4412599781
 C         -3.9216825970       -1.1955428665       -0.3302977675
 C         -3.6739307875       -2.4682356193       -0.7975517895
 C         -4.4323786898       -3.5389700793       -0.3280474725
 C         -4.1963788055       -4.9691862538       -0.7908157494
 C         -3.0708246880       -5.0769252281       -1.8244436528
 C         -5.4841188554       -5.5113183740       -1.4289511887
 C         -3.8138950726       -5.8301858170        0.4228176438
 C         -5.4367438028       -3.2786631611        0.6053836997
 C         -5.6986818052       -2.0035809237        1.0737203396
 C         -4.9349859845       -0.9485223966        0.6027378681
 H         -5.1010272803        5.0696957377        3.1384856666
 H         -5.0200830278        6.5129905448        2.1341187431
 H         -6.2892494575        5.3285156326        1.8478501403
 H         -5.5838250043        5.1538535529       -0.5756893400
 H         -3.8893635311        4.9102857279       -0.9959949642
 H         -4.3967781220        6.4154650638       -0.2323067165
 H         -2.6814095450        6.0616417600        1.6401121252
 H         -2.1610680968        4.5669989307        0.8645949519
 H         -2.6847887716        4.5450287219        2.5465357236
 H         -6.1735886486        3.1636490110        2.4889786357
 H         -6.5213448587        0.7609207762        2.3427868456
 H         -2.9986827943        2.9237956770       -0.3772295161
 H         -5.1986742866        1.4652697647       -2.0469464660
 H         -5.4674381758        1.6392321802       -4.5129083121
 H         -3.7791499865        0.5152218582       -5.9783572780
 H         -1.6671028768       -0.8488817552       -2.7776364830
 H         -1.2653561110        1.7152715758       -1.6447620428
 H          1.0712165470        1.9156708736       -0.9404091241
 H         -1.9341536618       -1.4631925228        1.1404533127
 H         -0.4356912810       -2.8387992357        2.9497817119
 H          1.3688544965       -3.6854603205        4.4162028138
 H          3.5947506663       -2.6611709442        4.3741748016
 H          4.1026515068       -0.7879763462        2.8598992828
 H          2.1856603081        2.8782750021        1.0371083058
 H          4.1162323103        4.2912316914        0.4363294903
 H          6.2849114398        3.2562811937       -0.1228043876
 H          6.2682430425       -0.5296547097        2.2906311329
 H          7.8135577868       -2.1827315990        3.2646806614
 H          9.8671800108       -2.8331111720        2.0965654302
 H         10.4498165423       -1.8263478707       -0.0846565718
 H         10.4978951667       -0.3630230739       -2.4139652190
 H          9.9986486840        1.1748386860       -4.2841651801
 H          7.9355925758        2.4965746133       -4.2986902661
 H          6.3186791898        2.3524898182       -2.4450157967
 H          4.5627609859       -0.6204549524        0.4107260575
 H         -2.8867615001       -2.6162530895       -1.5182138929
 H         -2.1235788194       -4.7377625229       -1.4105620448
 H         -3.2987758696       -4.4961105455       -2.7158796180
 H         -2.9526424518       -6.1168502973       -2.1227226533
 H         -5.3235871318       -6.5246172897       -1.7913451684
 H         -6.3036792402       -5.5315162367       -0.7158622472
 H         -5.7784790377       -4.8861907343       -2.2700679301
 H         -3.6267267133       -6.8552249504        0.1096957946
 H         -2.9103540810       -5.4418500361        0.8893610927
 H         -4.6051208034       -5.8407100750        1.1675587589
 H         -6.0368309990       -4.0930179408        0.9829546763
 H         -6.4852175597       -1.8384702241        1.7956378694
