  57
 
 C         -1.1272443365        3.5714288947       -2.2212278642
 C         -1.1178331033        2.3855562868       -2.9401845555
 C         -1.3306859016        1.1685582448       -2.3065755757
 C         -1.5540528870        1.1671802549       -0.9472151886
 C         -1.5650910939        2.3631914882       -0.2151048041
 C         -1.3513721421        3.5734616411       -0.8537447426
 C         -1.8158956937        2.0454775213        1.1818204336
 C         -1.9375864439        2.8585192167        2.2964907997
 C         -2.1893566134        2.2674116065        3.5242116151
 C         -2.3166945293        0.8913227197        3.6397859614
 C         -2.1938989056        0.0697574158        2.5272522611
 C         -1.9444052361        0.6543752294        1.3052502724
 C         -1.7676559308       -0.0162651208       -0.0351365807
 C         -2.9146448199       -0.9168017239       -0.4198001335
 C         -4.2427220361       -0.5942751394       -0.5591629575
 C         -5.1378704649       -1.5993080379       -0.9135487603
 C         -4.6990962380       -2.9021910721       -1.1195916883
 C         -3.3658652473       -3.2363152585       -0.9805520399
 C         -2.4584099184       -2.2377196087       -0.6289242265
 C         -1.0427470941       -2.2742593144       -0.4251289831
 C         -0.1047699876       -3.3147856867       -0.4863594843
 C          1.2147417426       -3.0485735300       -0.2482579181
 C          1.6909635272       -1.7278279901        0.0171237601
 C          3.0701116849       -1.4454191958        0.1455628472
 C          3.9723502734       -2.4341303234        0.6773771279
 C          5.2092139035       -2.0876763779        1.1279888755
 C          5.6743724279       -0.7646432869        1.0186126251
 C          4.8997366965        0.2115405217        0.3614064870
 C          5.3917430552        1.5080839509        0.1424060009
 C          4.6811010871        2.4258228297       -0.6211506821
 C          3.4890251471        2.0513354624       -1.2034978109
 C          2.9711090917        0.7711386823       -0.9822752394
 C          3.6146568313       -0.1373107392       -0.1480299774
 C          0.7126506207       -0.6951171770        0.1443053591
 C         -0.5974972957       -0.9718903751       -0.0791653765
 H         -0.9576933069        4.5063473670       -2.7357132898
 H         -0.9410250515        2.4086310387       -4.0056018116
 H         -1.3200139244        0.2437563695       -2.8654941872
 H         -1.3563303895        4.4996624511       -0.2983511253
 H         -1.8405692587        3.9307863720        2.2115485809
 H         -2.2892153097        2.8863504520        4.4040951175
 H         -2.5140553561        0.4532497932        4.6071727445
 H         -2.2924827852       -1.0024427236        2.6167746949
 H         -4.5851492034        0.4175823546       -0.3969202028
 H         -6.1854919725       -1.3645012851       -1.0288678251
 H         -5.4148442666       -3.6640763065       -1.3931092746
 H         -3.0297082993       -4.2496575977       -1.1424979470
 H         -0.4244981781       -4.3168365842       -0.7330951200
 H          1.9326314881       -3.8484500788       -0.3441316153
 H          3.6194082910       -3.4441967809        0.8103712177
 H          5.8474809766       -2.8311290032        1.5831774364
 H          6.6597505437       -0.5061022591        1.3747080183
 H          6.3420832773        1.7840702179        0.5758710321
 H          5.0754948150        3.4199221762       -0.7718116439
 H          2.9425338255        2.7395870662       -1.8309230044
 H          2.0664408820        0.4818816836       -1.4962852415
 H          1.0172023841        0.2880968399        0.4711527613
