  95
 
 C         -1.0781447041       -5.5115863396        3.2024618527
 C         -1.2699058634       -4.1397108013        3.1526640217
 C         -1.8372309502       -3.5552746136        2.0372756366
 C         -2.2054869901       -4.3474224248        0.9513173959
 N         -2.8102516954       -3.7663848410       -0.1719434198
 C         -2.4154375451       -2.6347270516       -0.8929734433
 C         -1.1644658445       -1.9914528467       -0.8355789281
 C          0.0008152461       -2.5033805799       -0.1895443228
 C          1.1359355526       -1.7604768674       -0.0938261343
 C          1.1940749655       -0.4229888803       -0.5769070075
 C          2.2712776806        0.4591601116       -0.2681867945
 C          3.5874121285       -0.0153052218       -0.1334265032
 C          4.6543939400        0.8476623921       -0.0326130401
 N          5.9569507135        0.3519845684        0.0793699809
 C          7.0466351952        0.7640126965       -0.6608684284
 C          7.1133454889        1.6820995055       -1.6998258213
 C          8.3428908251        1.8963765323       -2.2932914490
 C          9.4807221075        1.2084941555       -1.8783454404
 C          9.4147056241        0.2711413639       -0.8654084428
 C          8.1912523173        0.0398766893       -0.2531330215
 C          7.7589960204       -0.8536404014        0.7861694129
 C          8.4146063493       -1.7885881992        1.5746428679
 C          7.6866239001       -2.4815835960        2.5224452282
 C          6.3265974042       -2.2385606738        2.6996160021
 C          5.6522860689       -1.3124939083        1.9266463753
 C          6.3724322018       -0.6316042736        0.9550549912
 C          4.4402828430        2.2451568102       -0.0473194731
 C          3.1573258137        2.7321744726       -0.1121287167
 C          2.0535809399        1.8800531540       -0.1636223198
 C          0.7110319566        2.3954022524        0.0009578607
 C          0.2920724014        3.5933350018       -0.5980269199
 C         -1.0242834462        3.9894419191       -0.5497953383
 C         -1.9704065430        3.2163601596        0.1305680048
 N         -3.3254276964        3.5377942281        0.0975407915
 C         -3.8912303575        4.7797144942        0.3043318950
 C         -3.2884430859        5.9771597546        0.6628468438
 C         -4.1011078115        7.0815382393        0.8391051023
 C         -5.4816044412        7.0010786456        0.6759579622
 C         -6.0905323232        5.8044366928        0.3472768784
 C         -5.2958111354        4.6827159533        0.1636397162
 C         -5.5814676325        3.3092062563       -0.1538526963
 C         -6.7518794813        2.6161908348       -0.4296648423
 C         -6.6673069073        1.2718204526       -0.7404592546
 C         -5.4357117339        0.6237764378       -0.7954095022
 C         -4.2577719525        1.2930266027       -0.5216916834
 C         -4.3389898050        2.6363432782       -0.1818409056
 C         -1.5447036297        2.0818787204        0.8263298496
 C         -0.2353706518        1.6793086464        0.7585292168
 C          0.0909348052        0.0067622173       -1.3810614238
 C         -1.0243537526       -0.7498194900       -1.5211277156
 N         -3.3809517047       -2.2325183021       -1.7292643531
 C         -4.3989725792       -3.0989267047       -1.5901356808
 C         -5.6435597720       -3.1357562383       -2.2289899407
 C         -6.5218064613       -4.1314211434       -1.8657333952
 C         -6.1981993400       -5.0764299618       -0.8875885809
 C         -4.9716298485       -5.0657417624       -0.2422231468
 C         -4.0741363300       -4.0826303686       -0.6107721434
 C         -2.0152292147       -5.7247812306        1.0024613061
 C         -1.4530961800       -6.3001616971        2.1273970019
 H         -0.6380059992       -5.9646772168        4.0778377771
 H         -0.9834422843       -3.5226909300        3.9913579726
 H         -1.9960114415       -2.4878353306        1.9921852309
 H         -0.0107078389       -3.5042176203        0.2132533888
 H          1.9891800085       -2.1705867509        0.4266262483
 H          3.7772109494       -1.0758733402       -0.1999257131
 H          6.2328229133        2.2023682751       -2.0447009439
 H          8.4217681330        2.6086965276       -3.1011917599
 H         10.4236702007        1.4052406459       -2.3662702598
 H         10.2929754598       -0.2756032670       -0.5570494443
 H          9.4724151414       -1.9639859178        1.4497553598
 H          8.1768967961       -3.2161193011        3.1437685485
 H          5.7873391854       -2.7839277745        3.4600293987
 H          4.6024921483       -1.1172734266        2.0845435945
 H          5.2813307391        2.9117808977        0.0603317446
 H          2.9936118667        3.7981434563       -0.0465218089
 H          0.9982812906        4.1722745807       -1.1745682565
 H         -1.3458811105        4.8698607586       -1.0858632969
 H         -2.2219020648        6.0446245166        0.8145098268
 H         -3.6556218497        8.0260472756        1.1142705152
 H         -6.0825735689        7.8864874542        0.8200368082
 H         -7.1626273464        5.7390256010        0.2396273301
 H         -7.7050473560        3.1228275238       -0.4085885449
 H         -7.5667948585        0.7148318908       -0.9567048705
 H         -5.3904047844       -0.4199324132       -1.0655338132
 H         -3.3108131887        0.7808497369       -0.5905146623
 H         -2.2560954003        1.5296662477        1.4215730749
 H          0.0857727728        0.8151442424        1.3200549180
 H          0.1826385855        0.9341016063       -1.9266304892
 H         -1.8450024862       -0.4331864279       -2.1451799253
 H         -5.8900390013       -2.4003204736       -2.9780679306
 H         -7.4901603844       -4.1869288175       -2.3413321106
 H         -6.9228944079       -5.8335764693       -0.6275700689
 H         -4.7346968293       -5.7927192795        0.5203980460
 H         -2.2946681734       -6.3321846870        0.1543392632
 H         -1.3029890639       -7.3690811806        2.1617992215
