  65
 
 O          0.1186022025       -1.1970248216       -5.2274227300
 S         -0.0010499296        0.0222349377       -4.4767277136
 O         -0.1210431703        1.2488326716       -5.2153170262
 C         -1.2928260950       -0.1095210356       -3.2370957114
 C         -2.6479964214       -0.2421396622       -3.4308292319
 C         -3.4752864815       -0.3101301649       -2.3205391377
 C         -2.9347010852       -0.2516791626       -1.0354596598
 N         -3.7814711622       -0.3068151612        0.0863166863
 C         -4.5960498971       -1.4230921421        0.3110655062
 C         -4.5291688981       -2.5612033255       -0.4821133803
 C         -5.3436074141       -3.6538931292       -0.2257167489
 C         -6.2285547290       -3.6315149904        0.8331270789
 C         -6.2831598168       -2.5156196322        1.6544887525
 C         -5.4710237793       -1.4245829101        1.4048378149
 O         -5.5566600093       -0.3731100512        2.2818560348
 C         -4.7519805278        0.7133564902        2.0505219906
 C         -4.8618392710        1.7710394933        2.9346464268
 C         -4.1071181795        2.9196326470        2.7505760622
 C         -3.2574223693        3.0075211585        1.6668221445
 C         -3.1421429760        1.9490244326        0.7781640317
 C         -3.8673303182        0.7794089491        0.9660334414
 C         -1.5570938134       -0.1318694376       -0.8536935930
 C         -0.7289904710       -0.0554656165       -1.9638682566
 C          0.7280310632        0.0751968876       -1.9635565054
 C          1.5566427547        0.1406166157       -0.8530604604
 C          2.9341806831        0.2620903733       -1.0342605434
 N          3.7814567464        0.3060417158        0.0876232656
 C          4.5964140388        1.4198638195        0.3229439570
 C          4.5294536087        2.5657244252       -0.4589919424
 C          5.3442889927        3.6556414833       -0.1922636647
 C          6.2297241454        3.6226513135        0.8658949222
 C          6.2844181952        2.4987389446        1.6762446315
 C          5.4718843658        1.4104101597        1.4162792840
 O          5.5576411675        0.3503751103        2.2829157418
 C          4.7526541482       -0.7336102682        2.0412510001
 C          4.8627063686       -1.7999678626        2.9148700717
 C          4.1076953958       -2.9465576960        2.7198320430
 C          3.2575171033       -3.0236211039        1.6356326147
 C          3.1420432277       -1.9564044889        0.7574918176
 C          3.8675147293       -0.7888177195        0.9565557772
 C          3.4741850019        0.3331584237       -2.3189496907
 C          2.6463832818        0.2761880856       -3.4294781457
 C          1.2912909872        0.1417598188       -3.2364463349
 H         -3.0502919551       -0.2792031458       -4.4305334978
 H         -4.5442748754       -0.3995210848       -2.4400977989
 H         -3.8298349649       -2.5998231032       -1.3026375372
 H         -5.2739919622       -4.5227211734       -0.8615800253
 H         -6.8677151035       -4.4765393469        1.0337517145
 H         -6.9482710918       -2.4727678059        2.5019595261
 H         -5.5512689169        1.6769661085        3.7581880558
 H         -4.1983197864        3.7386104965        3.4461337934
 H         -2.6786765331        3.9021503508        1.4968714666
 H         -2.4900068934        2.0431270817       -0.0760022474
 H         -1.1553320978       -0.1034956775        0.1475425907
 H          1.1553309783        0.1024143151        0.1480292691
 H          3.8297452185        2.6125758055       -1.2787673968
 H          5.2746052226        4.5306824931       -0.8195417944
 H          6.8692034804        4.4655000672        1.0744960626
 H          6.9499068843        2.4474059413        2.5229474424
 H          5.5525133610       -1.7141295662        3.7389949984
 H          4.1990455783       -3.7723586732        3.4072553444
 H          2.6785356361       -3.9164307370        1.4571311904
 H          2.4895233718       -2.0419849943       -0.0972770827
 H          4.5431280088        0.4236119714       -2.4381134818
 H          3.0482290478        0.3230661030       -4.4289512122
