  53
 
 C         -7.1001943584       -2.8798415626        1.0439889881
 C         -7.5896670102       -1.5981519270        1.2889331457
 C         -6.8261293055       -0.4732225213        1.0325601144
 C         -5.5567420691       -0.6748053799        0.5247766808
 C         -5.0435500909       -1.9784960853        0.2726727734
 C         -5.8319540583       -3.0901318994        0.5373799656
 N         -3.7555809340       -1.9186541089       -0.2235742933
 C         -3.5034791601       -0.6455529030       -0.2841996384
 N         -2.4323575324        0.1360175110       -0.6175646848
 C         -1.2031928125       -0.3292976659       -1.0999363277
 C         -0.0130469609        0.2036129874       -0.6119007561
 C          1.1911678252       -0.2854020557       -1.1104099389
 C          2.4782670689        0.2377003846       -0.6296397215
 C          2.6324855898        1.6116548187       -0.4012002431
 C          3.8236500215        2.1502683346        0.0457188897
 C          4.8710605512        1.2759649809        0.2776959870
 O          6.1136098960        1.5995138178        0.7261462132
 C          6.8071253688        0.4255729641        0.8094883420
 C          8.1181691619        0.2741831575        1.2237309399
 C          8.6322235318       -1.0109879666        1.2376739374
 C          7.8637178476       -2.1065454218        0.8512410548
 C          6.5548010156       -1.9533232166        0.4365837932
 C          6.0176784966       -0.6724779724        0.4145781004
 C          4.7391794016       -0.1112884784        0.0609116306
 C          3.5400105808       -0.6304513692       -0.4010362407
 C          1.1293797111       -1.2982642161       -2.0710250861
 C         -0.1098561797       -1.7603333842       -2.4744308203
 N         -1.2550862947       -1.2871266600       -2.0122611521
 C         -2.8048977072        1.4617607459       -0.4027573965
 C         -2.1277007775        2.6444975912       -0.6409249654
 C         -2.7741347420        3.8334745518       -0.3383777274
 C         -4.0633517302        3.8493600228        0.1776228986
 C         -4.7656870957        2.6737679937        0.3923231665
 C         -4.1286634735        1.4844825887        0.0921291816
 N         -4.5342115389        0.1703980948        0.1565606994
 H         -7.7316482009       -3.7297487952        1.2575215891
 H         -8.5865283665       -1.4801749298        1.6864739432
 H         -7.2082934030        0.5181310874        1.2223228503
 H         -5.4531668332       -4.0820268439        0.3479282318
 H         -0.0269665284        0.9470615709        0.1693690071
 H          1.8038119576        2.2725631746       -0.6036538285
 H          3.9390657530        3.2096213822        0.2100026178
 H          8.7071748329        1.1269613638        1.5216767550
 H          9.6521192558       -1.1661759574        1.5555571262
 H          8.3025815486       -3.0926637035        0.8775248772
 H          5.9603149407       -2.8029766756        0.1382520080
 H          3.4263949069       -1.6921978454       -0.5541265252
 H          2.0309320293       -1.7031412675       -2.5015115277
 H         -0.2042912921       -2.5439605379       -3.2143296144
 H         -1.1359886301        2.6461100689       -1.0635801211
 H         -2.2620593608        4.7670618869       -0.5124938717
 H         -4.5327984616        4.7935093581        0.4055685957
 H         -5.7736973847        2.6841689121        0.7740183771
