  32
 
 N          6.0270544091        2.0065943680       -0.0025469095
 C          5.0457072639        1.4134677279       -0.0018727738
 C          3.8267573098        0.7020215143       -0.0010595563
 C          2.6177264706        1.3985958114       -0.0006443366
 C          1.4002217989        0.7289502121       -0.0000050686
 N          0.2319835760        1.3700032344        0.0002224922
 C         -0.9075690612        0.7181876722        0.0006988429
 C         -0.9076144955       -0.7181440547        0.0011730156
 N          0.2318776950       -1.3700182319        0.0010247460
 C          1.4001669532       -0.7290591165        0.0003674693
 C          2.6176217319       -1.3987933372       -0.0000422333
 C          3.8267054026       -0.7023052490       -0.0008002289
 C          5.0456006077       -1.4138417864       -0.0013227309
 N          6.0268869990       -2.0070556852       -0.0018505419
 C         -2.2801932183       -1.1700176679        0.0015525059
 C         -2.9075258627       -2.3927728648        0.0020564713
 C         -4.3154420750       -2.4140754354        0.0021685824
 C         -5.0838720174       -1.2742552234        0.0017850472
 C         -4.4681669311        0.0001291209        0.0012909711
 C         -5.0837944992        1.2745526206        0.0008087268
 C         -4.3152923730        2.4143263685        0.0003235663
 C         -2.9073773078        2.3929378156        0.0002725060
 C         -2.2801168235        1.1701406250        0.0007208302
 C         -3.0761300669        0.0000846493        0.0012214209
 H          2.6151632262        2.4773975069       -0.0008890186
 H          2.6149834008       -2.4775951362        0.0002045728
 H         -2.3505239141       -3.3169109098        0.0023430852
 H         -4.8060530650       -3.3766707886        0.0025492964
 H         -6.1615262707       -1.3455461537        0.0018510724
 H         -6.1614436925        1.3459115195        0.0008010845
 H         -4.8058429968        3.3769518127       -0.0000631156
 H         -2.3503198061        3.3170412286       -0.0001321097
