  53
 
 C         -6.2913243170        3.9069773815        0.4252802364
 C         -7.2294750162        2.9173658781        0.1373149111
 C         -6.8536657393        1.6013532851       -0.0593442260
 C         -5.5067646996        1.3094997624        0.0417037115
 C         -4.5402371091        2.3108770861        0.3344658471
 C         -4.9435517857        3.6243020264        0.5279818183
 N         -3.2703524703        1.7704144256        0.3801887567
 C         -3.4545057874        0.5055975636        0.1288943308
 N         -2.6635738196       -0.6078634014        0.0155759705
 C         -1.2832983193       -0.6293275464        0.1592171732
 C         -0.5852286674        0.5485464535        0.4442842967
 C          0.7840649959        0.4717352287        0.5740385639
 C          1.4349476504       -0.7569264062        0.4237995482
 C          2.8922505575       -0.8811272045        0.5422446141
 C          3.4503818624       -1.9868933200        1.1977076054
 C          4.8160030277       -2.1496961119        1.3265676703
 C          5.6297653193       -1.1766020207        0.7740702952
 O          6.9897570399       -1.1527300539        0.7830595942
 C          7.3553371280       -0.0183014509        0.1236374050
 C          8.6473668744        0.4156222029       -0.1119158739
 C          8.8001525785        1.6020949603       -0.8072015152
 C          7.7007245368        2.3316029979       -1.2523395747
 C          6.4108915775        1.8977259770       -1.0165903061
 C          6.2334274613        0.7092272183       -0.3212120697
 C          5.0928610751       -0.0556570797        0.1094818478
 C          3.7197315418        0.0937733076       -0.0026804402
 C          0.6310659938       -1.8579072402        0.1413473143
 N         -0.6805193928       -1.8022972848        0.0118137903
 C         -3.5134885309       -1.6801147976       -0.2773109073
 C         -3.2455939567       -3.0193300154       -0.4928187084
 C         -4.3176393503       -3.8539461905       -0.7695839577
 C         -5.6199638754       -3.3763211973       -0.8311665371
 C         -5.9024697699       -2.0368689937       -0.6168379119
 C         -4.8399115968       -1.1988121163       -0.3406138028
 N         -4.7734532207        0.1527736346       -0.0852749694
 H         -6.6316162572        4.9215153704        0.5713947799
 H         -8.2732513560        3.1842775118        0.0661854801
 H         -7.5815025100        0.8363912525       -0.2821535661
 H         -4.2183029572        4.3900081670        0.7508065848
 H         -1.1235626412        1.4750696426        0.5589959188
 H          1.3541435310        1.3579915327        0.8115573712
 H          2.7901966883       -2.7221888883        1.6322248468
 H          5.2380150597       -2.9997905952        1.8379977189
 H          9.4946214453       -0.1536513908        0.2350630766
 H          9.7947459254        1.9700495242       -1.0092753603
 H          7.8636637239        3.2526123576       -1.7917641276
 H          5.5593010508        2.4632959359       -1.3624868204
 H          3.3034420861        0.9410092881       -0.5259093055
 H          1.0635176696       -2.8383110253       -0.0103368566
 H         -2.2352176627       -3.3861064908       -0.4450366945
 H         -4.1324486970       -4.9031776862       -0.9417520001
 H         -6.4279131309       -4.0576850794       -1.0497243235
 H         -6.9115437636       -1.6600763849       -0.6635652229
