  43
 
 N         -6.6808899549       -3.9869731864        0.2323607042
 C         -5.7592959764       -3.3017793456        0.1890098863
 C         -4.6320051552       -2.4639555777        0.1350965908
 C         -3.3429399104       -2.9954693573        0.2925745877
 C         -2.2507886874       -2.1714599639        0.2386182924
 C         -2.3880180075       -0.7828939478        0.0280125388
 C         -1.1969716366        0.0212093969       -0.0350803719
 C         -1.1932779880        1.4133519733       -0.0438922058
 C          0.0127539434        2.1231137042        0.0012502976
 C          0.0209978046        3.5857186928        0.0028364158
 C         -0.9367626970        4.3055061010       -0.7151332081
 C         -0.9258490305        5.6865520630       -0.7123889309
 C          0.0361668690        6.3778962959        0.0061796748
 C          0.9906796982        5.6744040715        0.7229563529
 C          0.9866161858        4.2933076993        0.7223839670
 C          1.2104343358        1.3994629701        0.0449315829
 C          1.1981921877        0.0073310410        0.0331878940
 C          2.3797216395       -0.8104246346       -0.0311960151
 C          2.2260717863       -2.1974120515       -0.2412470636
 C          3.3084107756       -3.0341737240       -0.2960524942
 C          4.6038131074       -2.5177507956       -0.1401927619
 C          5.7211775893       -3.3686956323       -0.1947698323
 N          6.6347963260       -4.0644599255       -0.2389305983
 C          4.7729233736       -1.1409943975        0.0737936387
 C          3.6844045599       -0.3077245282        0.1216031123
 N         -0.0029346088       -0.5922206452       -0.0015873864
 C         -3.6864783919       -0.2650037844       -0.1266681912
 C         -4.7847528053       -1.0854615139       -0.0798112522
 H         -3.2241783578       -4.0576412256        0.4493671697
 H         -1.2537427391       -2.5720354842        0.3520145648
 H         -2.1336296539        1.9358058303        0.0184098660
 H         -1.6755129660        3.7783354206       -1.3007563901
 H         -1.6713352865        6.2275404638       -1.2765914700
 H          0.0419708921        7.4572716398        0.0075607425
 H          1.7420182738        6.2059244729        1.2883955419
 H          1.7196783414        3.7567670419        1.3066436394
 H          2.1567705586        1.9111918244       -0.0158429377
 H          1.2242465285       -2.5862787958       -0.3533583671
 H          3.1770500369       -4.0949491787       -0.4522712953
 H          5.7708817737       -0.7460987133        0.1953511245
 H          3.8439692283        0.7470055679        0.2852003110
 H         -3.8334149503        0.7914178135       -0.2911835007
 H         -5.7778694924       -0.6789966108       -0.2028801108
