50

C     -3.443478    1.878675   -1.266955
C     -2.885184    1.182246    0.000116
C     -3.443384    1.878207    1.267468
C     -3.383044   -0.272110   -0.000104
C     -4.758975   -0.585498   -0.000361
C     -5.201066   -1.909083   -0.000533
C     -4.276729   -2.945076   -0.000417
C     -2.914217   -2.652226   -0.000134
C     -2.462146   -1.323677    0.000032
N     -1.090469   -1.058936    0.000227
C     -0.481007    0.206850    0.000196
C     -1.342324    1.335481    0.000112
C     -0.776583    2.619821    0.000062
C      0.598908    2.791479   -0.000032
C      1.458176    1.689642   -0.000039
C      0.945562    0.372519    0.000121
C      1.967132   -0.809142    0.000156
C      1.776237   -1.649396    1.290198
C      1.776004   -1.649651   -1.289701
C      3.467510   -0.391891   -0.000015
C      4.503987   -1.352530    0.000056
C      5.847626   -0.974049   -0.000107
C      6.185076    0.372371   -0.000359
C      5.176774    1.333734   -0.000409
C      3.824808    0.959673   -0.000225
N      2.834338    1.935439   -0.000216
H     -4.537449    1.840385   -1.314082
H     -3.059768    1.402916   -2.178239
H     -3.173265    2.939210   -1.313607
H     -3.059623    1.402101    2.178550
H     -4.537355    1.839887    1.314643
H     -3.173128    2.938717    1.314493
H     -5.506689    0.203966   -0.000420
H     -6.265708   -2.127067   -0.000759
H     -4.612694   -3.978124   -0.000551
H     -2.201975   -3.472785   -0.000054
H     -0.504494   -1.874293    0.000572
H     -1.402036    3.508536    0.000068
H      1.000115    3.801444   -0.000123
H      2.407524   -2.545020    1.296931
H      0.758604   -2.005138    1.452939
H      2.040414   -1.058999    2.177460
H      2.039311   -1.059170   -2.177155
H      2.407833   -2.544880   -1.296736
H      0.758506   -2.006061   -1.451773
H      4.275968   -2.415597    0.000236
H      6.626327   -1.732098   -0.000040
H      7.228184    0.675507   -0.000505
H      5.452953    2.384576   -0.000591
H      3.134915    2.899113   -0.000394
