  43
 
 N         -6.6913692291       -3.9839590888        0.0128275528
 C         -5.7591638226       -3.3048718563        0.0232960657
 C         -4.6294823484       -2.4797611071        0.0380952467
 C         -3.3538651532       -3.0061334147       -0.2532484121
 C         -2.2572883244       -2.1915516440       -0.2434753175
 C         -2.3660504195       -0.8114296004        0.0571303737
 C         -1.1754129716       -0.0110718144        0.0906046662
 C         -1.1983451497        1.4140489219        0.1074921075
 C         -0.0015703739        2.1086614430        0.0008049041
 C         -0.0018534898        3.5850693242       -0.0002878277
 C         -0.9073827594        4.2868627649       -0.7908734762
 C         -0.9017925900        5.6702850319       -0.7943396103
 C         -0.0024031514        6.3656008231       -0.0027579786
 C          0.8972108549        5.6720296354        0.7900889284
 C          0.9034287102        4.2885990573        0.7890250901
 C          1.1969715773        1.4144473317       -0.1055108680
 C          1.1739432982       -0.0097288397       -0.0880722196
 C          2.3669012615       -0.8100422873       -0.0560891841
 C          3.6481860038       -0.2957402518       -0.3508917724
 C          4.7518083740       -1.1066690816       -0.3520831310
 C          4.6316832759       -2.4743568721       -0.0382510913
 C          5.7630678611       -3.2982748702       -0.0241474705
 N          6.6960273021       -3.9758843109       -0.0140616564
 C          3.3589693422       -3.0009591775        0.2619246077
 C          2.2607855524       -2.1875057283        0.2525171109
 N          0.0004166453       -0.6118637148        0.0022140852
 C         -3.6506552550       -0.2974710330        0.3427334992
 C         -4.7525395328       -1.1097689324        0.3437332603
 H         -3.2582355089       -4.0587010521       -0.4772380041
 H         -1.2769679524       -2.5895917720       -0.4577127179
 H         -2.1408632976        1.9323116184        0.1028604640
 H         -1.6006330296        3.7491296040       -1.4209208152
 H         -1.6038739940        6.2063868859       -1.4160184381
 H         -0.0026375237        7.4455626191       -0.0036678445
 H          1.5990070216        6.2095171115        1.4108912116
 H          1.5969846068        3.7523009068        1.4199543627
 H          2.1389308413        1.9336242635       -0.1001189703
 H          3.7711521016        0.7472069171       -0.5962422691
 H          5.7275760160       -0.7067748017       -0.5867122314
 H          3.2656208085       -4.0522435768        0.4926744484
 H          1.2822827305       -2.5858027872        0.4743271139
 H         -3.7764759632        0.7469167640        0.5803536112
 H         -5.7301012327       -0.7100671929        0.5711929303
