  53
 
 N         -5.7016002925       -3.2259601469       -0.3014803851
 C         -4.6008216479       -2.8844767815       -0.1607820558
 C         -3.3032373849       -2.4669594878        0.0493565057
 C         -2.3195835465       -3.3728677815        0.6141122660
 C         -1.0322762848       -2.9861156376        0.7597742477
 C         -0.6153917338       -1.6668610840        0.4230749162
 N          0.6488481102       -1.2161154625        0.7473693331
 C          0.9428544835        0.0196116622        1.3012515885
 C          0.0982722000        0.9140664646        1.9426776055
 C          0.6418345195        2.0974407466        2.4070895801
 C          2.0009507587        2.3725051872        2.2631259287
 C          2.8616768107        1.4491926974        1.6972739005
 C          2.3387463141        0.2530160849        1.2292011588
 C          2.9155928304       -0.9245808386        0.6481733230
 C          4.2126009455       -1.2882061337        0.3179046734
 C          4.4262577906       -2.5159037550       -0.2814941305
 C          3.3630708286       -3.3712001283       -0.5699691387
 C          2.0616781831       -3.0318998920       -0.2490680158
 C          1.8416254621       -1.8135994087        0.3789202600
 C         -1.5911992995       -0.7678675256       -0.1821838764
 N         -1.1602907191        0.4745997504       -0.6465601050
 C          0.0190601199        0.7070392838       -1.3330891209
 C          0.8494250551       -0.1954891534       -1.9819016074
 C          1.9855303145        0.2989681655       -2.5946403492
 C          2.2733845517        1.6611711910       -2.5936392961
 C          1.4112840498        2.5720271808       -2.0105879107
 C          0.2683303536        2.0971721587       -1.3860329169
 C         -0.8367478863        2.7324104399       -0.7217945488
 C         -1.1464201077        4.0543301126       -0.4416878182
 C         -2.3052241964        4.3288024646        0.2611161685
 C         -3.1406757314        3.3025750709        0.6967304419
 C         -2.8529252237        1.9774338133        0.4294823798
 C         -1.7024080681        1.6960082018       -0.2952347558
 C         -2.8873932277       -1.1665213319       -0.3371126593
 H         -2.6473648317       -4.3555617473        0.9144188720
 H         -0.3089746318       -3.6479443100        1.2121636478
 H         -0.9472202576        0.6895831672        2.0910557398
 H          0.0012225066        2.8166418684        2.8938035767
 H          2.3884238205        3.3129685438        2.6245576048
 H          3.9197146592        1.6494228704        1.6253488133
 H          5.0348691853       -0.6186162075        0.5184581379
 H          5.4296461600       -2.8165812382       -0.5431113655
 H          3.5587806393       -4.3140619281       -1.0574524954
 H          1.2459036142       -3.6941808526       -0.4945033460
 H          0.6149839527       -1.2486865611       -2.0171228807
 H          2.6580436750       -0.3866338167       -3.0874065148
 H          3.1741612278        2.0098701782       -3.0755459147
 H          1.6182565276        3.6306835481       -2.0422955589
 H         -0.4897297454        4.8488087448       -0.7613678662
 H         -2.5663319604        5.3521540468        0.4849978424
 H         -4.0314781128        3.5461498615        1.2556696240
 H         -3.5018613548        1.1910668817        0.7832182809
 H         -3.5996918144       -0.5195674409       -0.8274997100
