  104
 
 C         -8.0058582063        1.4132294904       -0.0315017006
 C         -6.9967270981        2.5737999156       -0.1022039933
 C         -7.7381406409        3.9192477596       -0.2037535745
 C         -6.1394273725        2.3976496076       -1.3415301724
 C         -6.7404352904        2.3799900228       -2.5925504082
 C         -6.0095270072        2.2279197100       -3.7563586196
 C         -4.6355811027        2.0903482278       -3.6793313975
 C         -4.0122913144        2.1037072676       -2.4493568406
 C         -4.7500027489        2.2540011110       -1.2717925480
 N         -4.0956641654        2.2606167448       -0.0504796906
 C         -2.6791588871        2.1394538715       -0.0244975967
 C         -1.8955734422        3.2967805104       -0.0466046940
 C         -0.5164137964        3.2340952443       -0.0113319968
 C          0.0750867299        1.9809224364        0.0568217647
 C         -0.7080877767        0.8056454345        0.0420556028
 C         -2.0926068028        0.8850352325        0.0088312605
 C          0.2092664354       -0.3006190871        0.0494883187
 C          0.0282224903       -1.6758948038        0.0635944126
 C          1.1507678624       -2.4865732893        0.0958111600
 N          1.0037998924       -3.9010262973        0.1076168039
 C          0.9907895177       -4.5839757435       -1.0979304279
 C          1.0985621475       -3.8713928416       -2.2954508911
 C          1.0868493987       -4.5224047373       -3.5109497813
 C          0.9662711883       -5.8995084973       -3.5531120391
 C          0.8590248688       -6.6058617395       -2.3693222352
 C          0.8686268900       -5.9766874276       -1.1321107728
 C          0.7484730259       -6.8081438817        0.1312430737
 C         -0.5875399757       -7.5722764880        0.0933419125
 C          1.9268954715       -7.7975508851        0.1835075090
 C          0.7807990810       -5.9482344585        1.3807608857
 C          0.6847767993       -6.5494466056        2.6279554450
 C          0.7097787589       -5.8170271282        3.8005722250
 C          0.8341766997       -4.4412162831        3.7359636202
 C          0.9312684808       -3.8174182471        2.5100363414
 C          0.9059294228       -4.5561460755        1.3235158215
 C          2.4337481105       -1.9328685334        0.1309274508
 C          2.6306739443       -0.5658755356        0.1178406222
 C          1.5101127649        0.2501792198        0.0569970005
 N          1.4179261867        1.6345011930        0.0697707722
 C          2.4862863896        2.5225606842        0.0946920581
 C          2.4789247486        3.6170346819        0.9659131415
 C          3.5409465144        4.5013002639        0.9860368206
 C          4.6228025726        4.3009104352        0.1444335730
 C          4.6403757302        3.2150625105       -0.7073199587
 C          3.5865750599        2.3266983578       -0.7444044268
 S          6.0481145769        2.9285097810       -1.7883766005
 O          6.0813532417        1.5188412858       -2.0770460223
 O          6.0021447675        3.8310004066       -2.8956310347
 C          7.4663849244        3.3066960911       -0.7525344402
 C          8.5828885455        2.4915947758       -0.8095029808
 C          9.6854537212        2.7891636955       -0.0229280553
 C          9.6614676600        3.8884278880        0.8227981051
 C          8.5347357184        4.6943453765        0.8851093490
 C          7.4423765460        4.3999093775        0.0888488125
 S          5.9920115334        5.4582291989        0.1505384892
 O          5.9913760221        6.1343791564        1.4203066063
 O          5.9393695238        6.2630036574       -1.0303804663
 C         -4.7755272407        2.4169190103        1.1458120193
 C         -4.0641810027        2.4146549553        2.3491627815
 C         -4.7123513370        2.5688751156        3.5564371651
 C         -6.0859174144        2.7268457171        3.5850147374
 C         -6.7917830648        2.7245481722        2.3959707001
 C         -6.1655094152        2.5715452657        1.1669137073
 H         -8.6322213672        1.3888618179       -0.9189081526
 H         -7.4750655319        0.4656910268        0.0402691540
 H         -8.6505509169        1.5116196348        0.8374983406
 H         -8.3588957872        3.9543199900       -1.0946973021
 H         -8.3759048782        4.0776541361        0.6614605666
 H         -7.0190570262        4.7348189184       -0.2542261514
 H         -7.8118958185        2.4882221538       -2.6681671018
 H         -6.5095246647        2.2184414971       -4.7127875389
 H         -4.0452258065        1.9727506237       -4.5757898065
 H         -2.9394175652        1.9979261853       -2.3956384407
 H         -2.3908499779        4.2545125086       -0.0963696019
 H          0.0734094562        4.1361120023       -0.0559687606
 H         -2.7039855474       -0.0037629069        0.0003763097
 H         -0.9592593030       -2.1102602323        0.0553038990
 H          1.1930282638       -2.7965167668       -2.2684781551
 H          1.1722740052       -3.9513710595       -4.4233694450
 H          0.9556735236       -6.4210745024       -4.4979563135
 H          0.7653636697       -7.6802913559       -2.4177037329
 H         -0.6436829297       -8.2126755040       -0.7825324189
 H         -0.7050227962       -8.1933492243        0.9770698292
 H         -1.4158200150       -6.8670693713        0.0566532924
 H          1.9303171239       -8.4437272717       -0.6898859979
 H          2.8677147404       -7.2507754076        0.2096107467
 H          1.8695878991       -8.4237205477        1.0695675870
 H          0.5873405181       -7.6226001446        2.6937116564
 H          0.6326289921       -6.3173608462        4.7537996365
 H          0.8555531542       -3.8497809605        4.6393587832
 H          1.0283044731       -2.7431869591        2.4657281435
 H          3.2823779936       -2.5984889574        0.1712412973
 H          3.6283237466       -0.1584035249        0.1619292966
 H          1.6475977967        3.7539333194        1.6399995420
 H          3.5622903060        5.3451457552        1.6574855679
 H          3.6292133304        1.5026485407       -1.4386417372
 H          8.5626269389        1.6368575498       -1.4671532419
 H         10.5622832201        2.1617131262       -0.0694122879
 H         10.5195937344        4.1179327067        1.4356666978
 H          8.4768783384        5.5485581702        1.5412025816
 H         -2.9921739621        2.2885533340        2.3328300501
 H         -4.1420119433        2.5642475710        4.4735077291
 H         -6.6051743915        2.8493314031        4.5232325375
 H         -7.8637518573        2.8465382984        2.4338402391
