  99
 
 C          7.1982096454       -4.7956868065        0.3556371238
 C          5.8130765873       -4.8047167897        0.2758397162
 C          5.1149555728       -3.6164916931        0.1939976802
 C          5.7978707372       -2.3993477288        0.1898488890
 C          5.0635283432       -1.1399434800        0.0949899604
 N          5.7758584733       -0.0011000543       -0.0123065140
 C          5.0633471476        1.1378688521       -0.1173027359
 C          5.7974878739        2.3971609013       -0.2146768433
 C          7.1900900248        2.3958108106       -0.2975843254
 C          7.8827925985        3.5879049311       -0.3826203661
 C          7.1975463987        4.7933954558       -0.3846210961
 C          5.8125772369        4.8025073009       -0.3018791838
 C          5.1146082868        3.6143408643       -0.2179172159
 N          3.7551909110        1.1726507743       -0.1349193810
 C          3.0846142709       -0.0008847820       -0.0073797161
 C          1.6679339590       -0.0006196689       -0.0039916952
 C          0.9402382288        1.1868913827       -0.2366424813
 C         -0.4353393766        1.1893443800       -0.2396166767
 N         -1.1233453450        2.3892394560       -0.4934328592
 C         -2.1176406448        2.5801501042       -1.4300055721
 C         -2.5439117567        1.7371533118       -2.4467956424
 C         -3.5691953445        2.1771765784       -3.2627904261
 C         -4.1452545212        3.4327445462       -3.0887257138
 C         -3.6878819898        4.2981869884       -2.1106660228
 C         -2.6604118174        3.8773917753       -1.2799112521
 C         -1.9294005593        4.5025333097       -0.2098956298
 C         -1.9974884266        5.7489159698        0.3946651950
 C         -1.1256723251        6.0308226799        1.4312996407
 C         -0.2022701757        5.0849003104        1.8711000787
 C         -0.1181972244        3.8347678249        1.2869476896
 C         -0.9814852971        3.5518545821        0.2361419276
 C         -1.1621911800        0.0000577331        0.0032082227
 N         -2.5641539777        0.0004283059        0.0068284122
 C         -3.3692092672        0.7882431584        0.8036449493
 C         -3.0137083291        1.6898944407        1.7978399211
 C         -4.0282270010        2.3515085001        2.4627811093
 C         -5.3670489034        2.1114525527        2.1632367079
 C         -5.7278118931        1.1831007214        1.2029818645
 C         -4.7261842105        0.5102411546        0.5198222613
 C         -4.7290949225       -0.5080040616       -0.4951239563
 C         -5.7346281774       -1.1802041193       -1.1731767758
 C         -5.3793675946       -2.1088534386       -2.1351950960
 C         -4.0422402683       -2.3498633327       -2.4414644922
 C         -3.0239221819       -1.6888558520       -1.7817547372
 C         -3.3737614545       -0.7868833100       -0.7858491855
 C         -0.4346851137       -1.1895752901        0.2423074763
 N         -1.1219247152       -2.3891803091        0.4995955769
 C         -0.9841130522       -3.5519049467       -0.2305914894
 C         -0.1264541714       -3.8350482747       -1.2859296073
 C         -0.2138592831       -5.0851966017       -1.8695601240
 C         -1.1351463551       -6.0308964951       -1.4248595375
 C         -2.0013730297       -5.7487696856       -0.3836096466
 C         -1.9298405165       -4.5023646435        0.2205177852
 C         -2.6550942601       -3.8769915633        1.2943010852
 C         -3.6782364387       -4.2975262297        2.1305190301
 C         -4.1305073312       -3.4318014706        3.1106993634
 C         -3.5534697774       -2.1762339628        3.2814652943
 C         -2.5323541585       -1.7365146407        2.4600989060
 C         -2.1113940775       -2.5797902963        1.4413414362
 C          0.9408607843       -1.1877997918        0.2322730155
 N          3.7554805659       -1.1745741176        0.1172650913
 C          7.1906324183       -2.3980733351        0.2697109705
 C          7.8834875392       -3.5902239767        0.3527046448
 H          7.7419786839       -5.7265933648        0.4190643641
 H          5.2777550024       -5.7430544822        0.2770780104
 H          4.0374106392       -3.6078093879        0.1292362494
 H          7.7081931246        1.4489387147       -0.2955686341
 H          8.9611243944        3.5790273595       -0.4472906952
 H          7.7411977285        5.7242513828       -0.4496667747
 H          5.2772875188        5.7408529137       -0.3024158653
 H          4.0372142744        3.6057088823       -0.1507742317
 H          1.4854703504        2.0921372225       -0.4500495652
 H         -2.0820579696        0.7757696278       -2.6080749606
 H         -3.9253803364        1.5334952650       -4.0531494082
 H         -4.9485120986        3.7398215730       -3.7414839023
 H         -4.1157632301        5.2825039242       -1.9979548860
 H         -2.7181346002        6.4802777721        0.0624630110
 H         -1.1604235553        6.9967100790        1.9125704365
 H          0.4617098430        5.3312828475        2.6864097635
 H          0.5947899749        3.1031243863        1.6376433154
 H         -1.9802653007        1.8650560772        2.0559191561
 H         -3.7740561878        3.0659237121        3.2316157425
 H         -6.1325951056        2.6502270155        2.7011949204
 H         -6.7664703579        0.9811504497        0.9903996921
 H         -6.7720573167       -0.9775442036       -0.9553371069
 H         -6.1479893460       -2.6471493746       -2.6692330242
 H         -3.7924312508       -3.0645725161       -3.2114538706
 H         -1.9919336970       -1.8647615996       -2.0450661707
 H          0.5848463339       -3.1035884147       -1.6404070263
 H          0.4458465797       -5.3317949793       -2.6882598939
 H         -1.1726489185       -6.9967965268       -1.9058935476
 H         -2.7204087862       -6.4799606960       -0.0475713736
 H         -4.1067898477       -5.2818310681        2.0202618889
 H         -4.9304530236       -3.7386467382        3.7676257907
 H         -3.9055712385       -1.5322907643        4.0734406646
 H         -2.0695593590       -0.7751568059        2.6188159857
 H          1.4867399684       -2.0933038561        0.4429066326
 H          7.7087711183       -1.4512126991        0.2669916015
 H          8.9619597618       -3.5814003661        0.4150319412
