  58
 
 C         -6.7047923445       -2.4526630226       -0.2218595810
 C         -6.2681743214       -1.6837333747        0.8444370834
 C         -4.9806262119       -1.1831277857        0.8609140102
 C         -4.1062914043       -1.4447995289       -0.1921742594
 C         -2.7292221413       -0.9292309854       -0.1711187337
 C         -1.6787323132       -1.8061772237       -0.4370202924
 C         -0.3518239106       -1.4039890391       -0.3944391881
 N          0.6721229649       -2.2157209029       -0.6678544628
 C          1.9246809555       -1.7969604414       -0.5803727691
 C          2.2191546857       -0.5074872452       -0.1433119552
 N          3.5232986705       -0.0554600411       -0.0542835194
 C          3.8028232128        1.2866216262       -0.3402798289
 C          4.8292845493        1.9442469156        0.3390779296
 C          5.0863983696        3.2763270011        0.0851892962
 C          4.3259000192        3.9751700296       -0.8393600753
 C          3.3038912638        3.3270684293       -1.5118809228
 C          3.0433409144        1.9911706145       -1.2727284855
 C          4.5505185998       -0.9427103798        0.2896202057
 C          5.7868824830       -0.8688405362       -0.3530778881
 C          6.7967688971       -1.7488773270       -0.0163337863
 C          6.5905255258       -2.7146341540        0.9556276944
 C          5.3629667739       -2.7933135418        1.5944636171
 C          4.3476216753       -1.9160309457        1.2682046932
 N          1.2185378912        0.3293808195        0.1546131277
 C         -0.0532787980       -0.0404577950       -0.0024046755
 C         -1.1162493125        0.8185047086        0.2410473625
 C         -2.4442994338        0.4061142545        0.1460344898
 C         -3.5088446085        1.4027476204        0.3368823946
 C         -3.4733763507        2.2748262486        1.4224205744
 C         -4.4673564756        3.2193731049        1.5986998694
 C         -5.5065407775        3.3148516705        0.6886260795
 C         -5.5428638626        2.4621394603       -0.4025128809
 C         -4.5534339023        1.5142520819       -0.5787816999
 C         -4.5503966696       -2.2311358769       -1.2526006411
 C         -5.8409723116       -2.7262869782       -1.2689665174
 H         -7.7131665525       -2.8395559093       -0.2351977828
 H         -6.9347320261       -1.4744652997        1.6685370470
 H         -4.6411604196       -0.5940299475        1.7001162742
 H         -1.8853677666       -2.8403881824       -0.6658069083
 H          2.7093520193       -2.4683918201       -0.8894364914
 H          5.4101291553        1.4084555886        1.0751977041
 H          5.8800078869        3.7755084639        0.6212509508
 H          4.5288509987        5.0175307593       -1.0322924844
 H          2.7077805193        3.8624564590       -2.2358246497
 H          2.2560445365        1.4901056834       -1.8140930888
 H          5.9437533997       -0.1231166425       -1.1184209022
 H          7.7484186557       -1.6854718312       -0.5226536112
 H          7.3811494562       -3.4024773849        1.2133476103
 H          5.1968470618       -3.5397678665        2.3566872504
 H          3.3943900375       -1.9705206209        1.7726765089
 H         -0.8857904193        1.8485393012        0.4669170647
 H         -2.6707079100        2.1936193715        2.1415705414
 H         -4.4321983914        3.8832246827        2.4506746316
 H         -6.2832385454        4.0525712706        0.8271655077
 H         -6.3460527443        2.5378692790       -1.1211354623
 H         -4.5799869107        0.8603022400       -1.4379816403
 H         -3.8822726664       -2.4355029038       -2.0772257381
 H         -6.1751666539       -3.3273141999       -2.1025335980
