  64
 
 C          1.5482884275       -4.2076503071       -1.6034458347
 C          0.7285762184       -4.0009317585       -0.3206485489
 C          1.5360102878       -4.4841651719        0.8940122969
 C         -0.5398301399       -4.8538092776       -0.4200309473
 C          0.4246258191       -2.5202993759       -0.1575532914
 C          1.4872306514       -1.6169702048       -0.0488086218
 C          1.2743764976       -0.2373739370        0.0273732655
 C         -0.0298605272        0.2980878948        0.0240253288
 C         -1.0931965480       -0.6339516960        0.0251424853
 C         -0.8622246571       -2.0081815626       -0.1271776674
 N         -2.3815948149       -0.1290335947        0.0915279078
 C         -3.5831398317       -0.7734591846        0.3221678561
 C         -3.8681340031       -2.0316077823        0.8406108782
 C         -5.1913738195       -2.4097046165        0.9723920183
 C         -6.2330094208       -1.5476787700        0.6199857208
 C         -5.9693184345       -0.2679949388        0.1742609817
 C         -4.6475122381        0.1377146776        0.0384851215
 C         -4.0417088829        1.3862413265       -0.3069563340
 C         -4.5347929060        2.6437514881       -0.6617889821
 C         -3.6082288435        3.6527157184       -0.9115025618
 C         -2.2463404427        3.4517662518       -0.7813166943
 C         -1.6964110660        2.2101194916       -0.3763621111
 C         -2.6508323251        1.1922120805       -0.2173938765
 B         -0.2467754139        1.8020873761       -0.0777188075
 C          1.0212345694        2.6516937466        0.0872309836
 C          1.0393441726        4.0493253107        0.2212935340
 C          2.2052426779        4.7684306319        0.3801381737
 C          3.4275650696        4.1055709765        0.4229262101
 C          3.4615292648        2.7275248039        0.3218287075
 C          2.2819828334        1.9911826507        0.1592174340
 N          2.3631271508        0.6123179243        0.0810033301
 C          3.6623206837        0.0198638201        0.0875645465
 C          4.2052669344       -0.4632810741        1.2722535590
 C          5.4608665398       -1.0455868430        1.2643661645
 C          6.1740838766       -1.1478904539        0.0806841732
 C          5.6309640688       -0.6660248432       -1.0994154446
 C          4.3761420968       -0.0820419904       -1.1004529855
 H          2.4954898141       -3.6766395839       -1.5592022481
 H          0.9933341540       -3.8453480433       -2.4667586852
 H          1.7574966272       -5.2656583473       -1.7467678757
 H          0.9741251516       -4.3167077948        1.8109807653
 H          2.4848504290       -3.9607939038        0.9743503743
 H          1.7420167402       -5.5487763342        0.8057336511
 H         -0.2640569986       -5.9006809544       -0.5302236225
 H         -1.1457463483       -4.7614607878        0.4785754193
 H         -1.1369489922       -4.5733199382       -1.2849496072
 H          2.4963676221       -1.9929979941       -0.0746191274
 H         -1.7050927158       -2.6571524411       -0.2776065236
 H         -3.0915572631       -2.6967417666        1.1828145899
 H         -5.4247291321       -3.3856643514        1.3717244549
 H         -7.2549391987       -1.8811011455        0.7283355427
 H         -6.7737811641        0.4153620193       -0.0555388230
 H         -5.5951721423        2.8237566284       -0.7520889874
 H         -3.9686902508        4.6294297823       -1.2081074706
 H         -1.5802398653        4.2721561877       -0.9995796706
 H          0.0969040181        4.5735079948        0.2173170824
 H          2.1726008106        5.8449899882        0.4750147436
 H          4.3476851042        4.6577824549        0.5441947719
 H          4.4147844814        2.2239123719        0.3738613985
 H          3.6396103153       -0.3794226790        2.1885168357
 H          5.8817809356       -1.4201253941        2.1853743019
 H          7.1529729856       -1.6031448108        0.0780071791
 H          6.1837233180       -0.7452496670       -2.0234799237
 H          3.9420328129        0.2970410911       -2.0138234879
