  105
 
 C         -9.3445484608        1.0013753514        4.4490503958
 C         -8.4735756283        0.9054172605        3.2332815697
 C         -7.0960432151        1.0605603015        3.3303855548
 C         -6.2849200509        0.9614159962        2.2185080226
 C         -6.8349055901        0.6926132449        0.9652299060
 N         -6.0004758438        0.5754477107       -0.1476396319
 C         -6.4173504129        0.9273137718       -1.4320083330
 C         -5.8933885259        0.2592998546       -2.5386883177
 C         -6.2839969423        0.6089953594       -3.8152172425
 C         -7.2092817920        1.6223849320       -4.0332337615
 C         -7.6184181793        2.0047540659       -5.4233848144
 C         -7.7240118688        2.2883779574       -2.9274801651
 C         -7.3345096871        1.9567809470       -1.6456707193
 C         -4.6912209816        0.0834087886        0.0329566441
 C         -4.4983923031       -1.2063674316        0.5605728932
 C         -5.5841549591       -2.0644769084        0.8708835108
 C         -5.3771693638       -3.3134696529        1.3713372686
 C         -4.0685311514       -3.7854391674        1.5881453645
 C         -2.9987985108       -3.0030896198        1.2795941113
 C         -3.1694809957       -1.6948865640        0.7552152932
 C         -2.0724129626       -0.9015200140        0.3920004482
 C         -0.6996418802       -1.4188958634        0.5744861852
 C         -0.1512051860       -1.5367316517        1.8489482871
 C          1.1344272482       -2.0147963199        2.0110253489
 C          1.8872865096       -2.3842032254        0.9046893450
 P          3.5802681426       -2.9687076718        1.2288510204
 O          3.7582623274       -3.5372730495        2.5695203289
 C          3.9530616166       -4.1451757372       -0.1127521614
 C          4.3884893960       -3.7569883813       -1.3725322177
 C          4.6327589413       -4.7169785793       -2.3384091687
 C          4.4442916162       -6.0592564020       -2.0497680897
 C          4.0169407534       -6.4473843420       -0.7901963497
 C          3.7721900289       -5.4901896656        0.1776129324
 C          4.6525793940       -1.5303416635        0.9092107552
 C          5.8609653500       -1.4963096329        1.5927372586
 C          6.7433752294       -0.4526278661        1.4025389607
 C          6.4238640619        0.5717608797        0.5126308235
 N          7.3143099927        1.6298887337        0.3080814138
 C          8.6643704241        1.5092486346        0.0353180152
 C          9.4298224654        0.3678064044       -0.1539307403
 C         10.7697098601        0.5315816402       -0.4499740544
 C         11.3399650481        1.7970317422       -0.5668654161
 C         10.5773581108        2.9364450648       -0.4057944153
 C          9.2285029981        2.7972664110       -0.1070006604
 C          8.1616535493        3.7365345208        0.1004764000
 C          8.1006081883        5.1237023978        0.1102337451
 C          6.8896684930        5.7305102444        0.3770822156
 C          5.7533343401        4.9719753839        0.6480663534
 C          5.7892539122        3.5904863563        0.6436534600
 C          6.9974582437        2.9750634594        0.3502073929
 C          5.2086419410        0.5389366487       -0.1697474757
 C          4.3268049231       -0.5042728202        0.0319744988
 C          1.3431129981       -2.2822934396       -0.3690044148
 C          0.0586782454       -1.7997024994       -0.5300809399
 C         -2.2665815851        0.3787079342       -0.1449754534
 C         -1.1714669401        1.2136372137       -0.4900620983
 C         -1.3651610275        2.4732102672       -0.9670013303
 C         -2.6697605855        2.9826132113       -1.1112158867
 C         -3.7473687872        2.2141490903       -0.7927422297
 C         -3.5910056267        0.8879519086       -0.3149168845
 C         -8.2155743871        0.5204873788        0.8641422758
 C         -9.0156758517        0.6331440514        1.9831890064
 H         -8.9541230282        1.7387422580        5.1472252040
 H         -9.3789213098        0.0394231124        4.9623042095
 H        -10.3614139607        1.2756222213        4.1780911230
 H         -6.6511128886        1.2715146502        4.2924198605
 H         -5.2168891508        1.0944874090        2.3117081120
 H         -5.1804492402       -0.5383397285       -2.3881713747
 H         -5.8684890018        0.0773480894       -4.6595100928
 H         -7.6060806148        1.1393081875       -6.0823501981
 H         -6.9261677329        2.7445295278       -5.8278684149
 H         -8.6156911359        2.4386020790       -5.4292204745
 H         -8.4364486302        3.0883499500       -3.0715817167
 H         -7.7314158365        2.5029348578       -0.8022695281
 H         -6.5907464238       -1.7195024834        0.6945683225
 H         -6.2166514778       -3.9539435390        1.5976532897
 H         -3.9215238825       -4.7779144957        1.9878960755
 H         -1.9946836091       -3.3727904799        1.4250946866
 H         -0.7395660076       -1.2462997629        2.7075127806
 H          1.5726833779       -2.1187028317        2.9933766780
 H          4.5474852827       -2.7101724528       -1.5915710782
 H          4.9739933601       -4.4181124970       -3.3191054934
 H          4.6372630747       -6.8041744562       -2.8077877795
 H          3.8771195665       -7.4943524950       -0.5644870855
 H          3.4498467816       -5.7660396040        1.1715653050
 H          6.0837169299       -2.2924622704        2.2885065046
 H          7.6726066740       -0.4112498751        1.9507697361
 H          8.9950437851       -0.6179320494       -0.0835194605
 H         11.3875619963       -0.3419829445       -0.5969491712
 H         12.3916013584        1.8827066636       -0.7963635924
 H         11.0145981745        3.9175643162       -0.5134339100
 H          8.9859726750        5.7107310137       -0.0817173259
 H          6.8197916740        6.8080003914        0.3878785240
 H          4.8236589700        5.4742343659        0.8715811128
 H          4.9069927949        3.0133772898        0.8764183915
 H          4.9701891587        1.3275636514       -0.8681176794
 H          3.3819892342       -0.5204512552       -0.4926486422
 H          1.9189357451       -2.5916286007       -1.2301494800
 H         -0.3716936160       -1.7198949249       -1.5184102307
 H         -0.1707331968        0.8302376847       -0.3561205372
 H         -0.5210356858        3.0962447468       -1.2240954842
 H         -2.8087352825        3.9922420814       -1.4683069223
 H         -4.7415294972        2.6205054314       -0.8920746595
 H         -8.6566680889        0.2860591940       -0.0938215150
 H        -10.0832653814        0.4967136234        1.8835418975
