  72
 
 C          3.2056029816        3.5283353808        0.7660548067
 C          2.0056108275        2.6381027099        0.7287390176
 C          1.8353838604        1.6189671680        1.6582413226
 C          0.7273145899        0.7929367935        1.6368966172
 C          0.5562436611       -0.1899527220        2.7549956001
 C         -0.2451388377        0.9211962556        0.6058987871
 B         -1.3107280302       -0.1883429136        0.3582500665
 C         -0.9215455922       -1.6584973629        0.2546361338
 C         -1.8650939237       -2.6955358444        0.4921256772
 C         -1.5264501768       -4.0163103048        0.5833960229
 C         -0.1918838067       -4.4183826297        0.4090207834
 C          0.7616925471       -3.4578291866        0.1357510409
 C          0.4313771570       -2.1132630338        0.0191243733
 N          1.4687023703       -1.2265069642       -0.2892766786
 C          2.6723715850       -1.1569225421        0.3813801224
 C          3.0872153205       -1.8283675097        1.5250371759
 C          4.3540599751       -1.5614930175        2.0104819560
 C          5.1965375756       -0.6488673197        1.3780707931
 C          4.7908216824        0.0233615950        0.2383431901
 C          3.5243269303       -0.2271549417       -0.2653246429
 C          2.8014564174        0.2526681662       -1.4115457361
 C          3.1223217643        1.1133381855       -2.4498703929
 C          2.2047225107        1.2919882330       -3.4694794726
 C          0.9920087582        0.6082522102       -3.4698532027
 C          0.6496240937       -0.2501386722       -2.4410415555
 C          1.5490911835       -0.4053561444       -1.3979641125
 C         -2.8471629279        0.2032138463        0.2257280999
 C         -3.4456721604        0.9945192216        1.2246303365
 C         -2.6732346978        1.4335048763        2.4329238558
 C         -4.7826229701        1.3452607876        1.1368408122
 C         -5.5778788477        0.9366867016        0.0739620272
 C         -7.0237217646        1.3317653509        0.0059465205
 C         -4.9888125491        0.1580834563       -0.9060234597
 C         -3.6489305334       -0.2112047620       -0.8478107334
 C         -3.1219084250       -0.9975559809       -2.0153661164
 C         -0.1307340669        2.0489769269       -0.2518484004
 C         -1.2020906734        2.3460116092       -1.2536910438
 C          0.9838741167        2.8557538030       -0.1988089201
 H          2.9797713345        4.4427322692        1.3182270053
 H          3.5016913755        3.8137795393       -0.2415467573
 H          4.0384351661        3.0316840190        1.2585931741
 H          2.5857426329        1.4754888370        2.4244431008
 H         -0.0702506685        0.2528907385        3.5308532535
 H          0.0701025713       -1.1018910759        2.4203519867
 H          1.5171470144       -0.4328117136        3.2031667804
 H         -2.8949211847       -2.4024963179        0.6415223040
 H         -2.2834934176       -4.7593643608        0.7927916140
 H          0.0788109072       -5.4621128978        0.4530595921
 H          1.7847748944       -3.7537146707       -0.0570296443
 H          2.4416719654       -2.5370140142        2.0204637548
 H          4.6985908758       -2.0712703845        2.8984395852
 H          6.1804112365       -0.4679838158        1.7857398863
 H          5.4458922099        0.7285225326       -0.2505631112
 H          4.0744220363        1.6220364838       -2.4662602443
 H          2.4369056794        1.9575838637       -4.2880015451
 H          0.3078721462        0.7464523185       -4.2939892412
 H         -0.2812961973       -0.7916288969       -2.4517216060
 H         -2.3468396458        0.5627630192        2.9999184920
 H         -3.2859529691        2.0593942420        3.0786378646
 H         -1.7869290733        1.9940160580        2.1412152815
 H         -5.2249072950        1.9412478304        1.9248324909
 H         -7.1212194509        2.4174456761       -0.0146060729
 H         -7.5597080830        0.9667126078        0.8823325732
 H         -7.4966149771        0.9240420083       -0.8845835381
 H         -5.5790441859       -0.1654084114       -1.7538644997
 H         -2.9289028925       -0.3280476994       -2.8558847430
 H         -2.2037356369       -1.5161134594       -1.7614330002
 H         -3.8559089589       -1.7331589910       -2.3411193373
 H         -2.1150900784        2.6635492423       -0.7508303329
 H         -0.8869771151        3.1340905939       -1.9339757886
 H         -1.4389565365        1.4537088316       -1.8269736464
 H          1.0796937785        3.6764273567       -0.8969700695
