  76
 
 C          0.0094236676       -6.7919001006       -0.8196116526
 C          1.2090144418       -6.1026553247       -0.7280515542
 C          1.2085562080       -4.7305697201       -0.5660521629
 C          0.0049058993       -4.0326552407       -0.4947976471
 C          0.0020793677       -2.5781809165       -0.3346802671
 N         -1.1471657231       -1.9422474279       -0.2635395610
 C         -1.1990241391       -0.5839384046       -0.1321309649
 C         -2.5056859112        0.0203993922       -0.0425204774
 C         -2.7155287907        1.4052241572       -0.1155494334
 C         -3.9910870334        1.9407103286       -0.0294665348
 C         -4.1874469730        3.3942973691       -0.1346390432
 C         -5.2571027387        3.9303570045       -0.8524876219
 C         -5.3933197449        5.3058818850       -0.9248630027
 N         -4.5580366874        6.1490987035       -0.3422604094
 C         -3.5432199950        5.6507144666        0.3431186409
 C         -3.3127302236        4.2925734513        0.4777565110
 C         -5.0883422645        1.0973039839        0.1487099044
 C         -4.9031275078       -0.2836301659        0.2241710635
 C         -6.0565077278       -1.1750218270        0.4216138401
 C         -6.1661849971       -2.3829402580       -0.2672753999
 C         -7.2724889670       -3.1837929467       -0.0414882331
 N         -8.2392104755       -2.8616923366        0.8004239616
 C         -8.1440242271       -1.7196517505        1.4584998622
 C         -7.0820074104       -0.8443654355        1.3074502606
 C         -3.6279836960       -0.8098496731        0.1186912737
 C         -0.0027981126        0.1267608182       -0.0703130996
 C          1.1982442294       -0.5787536874       -0.1362197362
 C          2.5033224333        0.0268472606       -0.0562628214
 C          2.7087597902        1.4146385919       -0.0371521080
 C          3.9844028754        1.9479958988        0.0564842333
 C          4.1711651301        3.4063719739        0.0779034544
 C          3.4285741484        4.2457217650       -0.7534516129
 C          3.6440780135        5.6115517900       -0.6923192565
 N          4.5241673453        6.1707351294        0.1205778911
 C          5.2327081851        5.3837064023        0.9122962842
 C          5.0979822005        4.0063413329        0.9310111881
 C          5.0900262923        1.0999395033        0.1352024421
 C          4.9112748931       -0.2837886087        0.0987835327
 C          6.0716387434       -1.1841195412        0.1755260206
 C          6.1523856546       -2.3304944013       -0.6151747205
 C          7.2654193492       -3.1454666595       -0.5004199364
 N          8.2649447620       -2.8927839674        0.3268148205
 C          8.1979829420       -1.8088341611        1.0798999315
 C          7.1320790735       -0.9261716478        1.0441063642
 C          3.6344842252       -0.8062515850        0.0007629172
 N          1.1477039817       -1.9368048260       -0.2735430208
 C         -1.1964146431       -4.7320977269       -0.5871305350
 C         -1.1924365837       -6.1041954715       -0.7489612563
 H          0.0112424201       -7.8643996323       -0.9467984938
 H          2.1454810525       -6.6380086834       -0.7828882562
 H          2.1339552282       -4.1795773813       -0.4938638257
 H         -1.8843636049        2.0714004472       -0.2856130095
 H         -5.9577219433        3.2864837083       -1.3609284909
 H         -6.2073582138        5.7593261073       -1.4755630064
 H         -2.8885335131        6.3782069435        0.8056567013
 H         -2.4796256034        3.9379717236        1.0648321744
 H         -6.0807805948        1.5135819147        0.2243682286
 H         -5.4118132614       -2.6817511972       -0.9781428988
 H         -7.3960793220       -4.1268042113       -0.5581031977
 H         -8.9573783444       -1.5005553440        2.1381266970
 H         -7.0424456981        0.0683813862        1.8814704470
 H         -3.4658586949       -1.8738901627        0.1944285737
 H         -0.0060394838        1.1951747935        0.0597722278
 H          1.8683611111        2.0895271418       -0.0770314689
 H          2.7108595777        3.8385072415       -1.4488374874
 H          3.0901234239        6.2944374369       -1.3236683043
 H          5.9382528307        5.8862311281        1.5613388326
 H          5.6893438846        3.4107735712        1.6087607056
 H          6.0853592463        1.5148798666        0.1708883572
 H          5.3695790326       -2.5707901930       -1.3175440189
 H          7.3667289806       -4.0422682024       -1.0978635420
 H          9.0378965953       -1.6457585992        1.7427744262
 H          7.1173492555       -0.0642383847        1.6926998743
 H          3.4780219753       -1.8737362255        0.0001515624
 H         -2.1231708057       -4.1814007703       -0.5328290387
 H         -2.1270785466       -6.6407589139       -0.8204229506
