  63
 
 C         -6.3483788166        1.2220000054       -1.4225412326
 C         -5.8121601953        0.3729494674       -0.2531680118
 C         -6.9822368392       -0.1577627943        0.5981678368
 C         -5.0496741244       -0.8057910697       -0.8220892092
 C         -5.7005466627       -1.7113882117       -1.6491271971
 C         -5.0479210929       -2.7962214281       -2.2056561131
 C         -3.7012543372       -2.9915983619       -1.9410323420
 C         -3.0296466376       -2.1114257865       -1.1220539515
 C         -3.6899119956       -1.0163450578       -0.5480252446
 N         -2.9906992689       -0.1550050457        0.2734816616
 C         -1.6155050943       -0.4207411386        0.5409397463
 C         -1.2692137507       -1.3149755729        1.5434790519
 C          0.0666853280       -1.5784211486        1.8078909302
 C          1.0761289344       -0.9551203890        1.0769550305
 N          2.3755480117       -1.1560393410        1.3449687210
 C          3.3167267110       -0.5508260495        0.6328000807
 C          4.7084509919       -0.6884878938        1.0554826297
 C          5.1909438720       -1.9231067588        1.4985832961
 C          6.5063018540       -2.0093578840        1.9107098854
 C          7.2967885931       -0.8677283210        1.8831195478
 C          6.7153797506        0.3161795579        1.4547194251
 N          5.4614959416        0.4091047179        1.0560415806
 C          2.9642093563        0.2569543269       -0.4646736626
 C          3.9749215238        0.7732185757       -1.3772841151
 C          3.8031616029        2.0221283721       -1.9849012446
 C          4.7747110000        2.4742271331       -2.8545771486
 C          5.8809894847        1.6716592643       -3.1066031775
 C          5.9442966180        0.4367105684       -2.4788329633
 N          5.0231445274       -0.0043685958       -1.6447207372
 N          1.6841262763        0.5178417829       -0.7148588450
 C          0.7146068866       -0.0387414823        0.0255433596
 C         -0.6326616398        0.2152730032       -0.2151940218
 C         -3.5823265553        0.9513288400        0.8487869574
 C         -2.8231913702        1.7853857939        1.6810542594
 C         -3.3837343539        2.8986477731        2.2668384157
 C         -4.7168445134        3.2011366130        2.0366345127
 C         -5.4717046653        2.3754482595        1.2235497818
 C         -4.9347940769        1.2464178249        0.6196551937
 H         -6.9950462722        0.6303666777       -2.0636493671
 H         -6.9168334615        2.0706756498       -1.0539754765
 H         -5.5192083297        1.5957489970       -2.0205990835
 H         -7.6439871071       -0.7769114271       -0.0001344066
 H         -7.5621765532        0.6625978429        1.0103048817
 H         -6.6001755215       -0.7576688699        1.4221407004
 H         -6.7470096074       -1.5708863084       -1.8705479664
 H         -5.5841898604       -3.4812500008       -2.8442991940
 H         -3.1733961455       -3.8283832508       -2.3731354168
 H         -1.9805718521       -2.2612720268       -0.9197112877
 H         -2.0426202859       -1.8017121733        2.1176554140
 H          0.3497410119       -2.2599126559        2.5943352613
 H          4.5326804703       -2.7776525876        1.5054229699
 H          6.9124621380       -2.9515247586        2.2495669272
 H          8.3297665690       -0.8927307562        2.1916911499
 H          7.2753335687        1.2428647908        1.4314688921
 H          2.9221622792        2.6016860970       -1.7580184700
 H          4.6756435557        3.4387204842       -3.3315631277
 H          6.6650638085        1.9896896844       -3.7750661980
 H          6.7702270064       -0.2419526850       -2.6526713227
 H         -0.9034125180        0.8979552970       -1.0052139735
 H         -1.7867018205        1.5480964113        1.8635243017
 H         -2.7807239750        3.5284101916        2.9035340736
 H         -5.1653489084        4.0719861678        2.4896722286
 H         -6.5089619364        2.6224964495        1.0594294172
