  67
 
 O         -0.1206784574        4.6135601683       -1.2084562730
 S         -0.0133015157        3.8430701803        0.0228535095
 O          0.0889027262        4.6011576623        1.2622553650
 C          1.3535870550        2.7383373390       -0.0975959952
 C          1.9194793319        2.2128000629        1.0716297881
 C          2.8373257466        1.1962570451        0.9935649381
 C          3.1954291570        0.6718560716       -0.2587741322
 N          4.1424059035       -0.3823492974       -0.3396833209
 C          5.4790779396       -0.1424490932       -0.0745516951
 C          5.9575769344        1.1312536545        0.2369984801
 C          7.2981948982        1.3315387691        0.5009855989
 C          8.1937365851        0.2696547451        0.4548241509
 C          7.7432496855       -0.9979966199        0.1307210790
 C          6.3995884116       -1.2101547044       -0.1370782428
 O          6.0143174914       -2.4765693011       -0.4680544751
 C          4.6961686647       -2.6949165701       -0.7454009786
 C          4.3183127592       -3.9848874929       -1.0856924366
 C          2.9924593380       -4.2686828690       -1.3621611916
 C          2.0385296389       -3.2607071377       -1.2871976141
 C          2.4035669809       -1.9729233488       -0.9466791292
 C          3.7379766778       -1.6610002540       -0.6809507908
 C          2.6223292583        1.1935200442       -1.4296758440
 C          1.7067427318        2.2118292162       -1.3472217808
 C         -1.3726684439        2.7278826617        0.1313533346
 C         -1.7237631186        2.1869286854        1.3753742941
 C         -2.6322435432        1.1614476870        1.4467343663
 C         -3.2001663970        0.6469800452        0.2700798603
 N         -4.1400589635       -0.4142809191        0.3400719788
 C         -5.4778762922       -0.1815108426        0.0741210392
 C         -5.9640080513        1.0904505944       -0.2327576306
 C         -7.3055713394        1.2835269899       -0.4973373100
 C         -8.1946177351        0.2159921718       -0.4561974029
 C         -7.7366522755       -1.0500938551       -0.1366265330
 C         -6.3918733270       -1.2551233819        0.1313820611
 O         -5.9992797747       -2.5204326463        0.4577273980
 C         -4.6798974920       -2.7322423196        0.7340938752
 C         -4.2943579822       -4.0214544832        1.0686010935
 C         -2.9667911978       -4.2986288939        1.3435673945
 C         -2.0188088010       -3.2846909225        1.2727723264
 C         -2.3915294551       -1.9975612533        0.9383314270
 C         -3.7279136598       -1.6922382954        0.6745004376
 C         -2.8440538299        1.1859037359       -0.9766486303
 C         -1.9333552995        2.2096477778       -1.0436310426
 H          1.6251702782        2.6408706723        2.0168281552
 H          3.2887239791        0.7900684104        1.8867012169
 H          5.2656493005        1.9578324975        0.2644619647
 H          7.6474494500        2.3234707433        0.7412712069
 H          9.2393355821        0.4298759659        0.6635371033
 H          8.4158622380       -1.8390149664        0.0749827330
 H          5.0796308139       -4.7475282548       -1.1253252721
 H          2.7044293776       -5.2727682378       -1.6292239078
 H          1.0031375298       -3.4796352921       -1.4956259707
 H          1.6617433628       -1.1932373468       -0.8808684302
 H          2.9169248148        0.7921900582       -2.3880888030
 H          1.2574104349        2.6435408202       -2.2275824150
 H         -1.2787249460        2.6133287841        2.2605048150
 H         -2.9253039795        0.7489024407        2.4008496247
 H         -5.2773093978        1.9214856555       -0.2559843284
 H         -7.6606629630        2.2742366648       -0.7341027188
 H         -9.2410127348        0.3706572340       -0.6651448282
 H         -8.4041135057       -1.8954472755       -0.0846691472
 H         -5.0511471078       -4.7887576857        1.1048918345
 H         -2.6727156852       -5.3021757666        1.6060502054
 H         -0.9820688701       -3.4985258978        1.4798039215
 H         -1.6543658691       -1.2131910152        0.8759595142
 H         -3.2911909783        0.7851072394       -1.8743437679
 H         -1.6409745839        2.6489472048       -1.9842699254
