72

C      1.426998    0.571714    3.367496
C      1.313972    1.829103    2.769343
C      1.661005    2.028522    1.421274
C      1.514977    3.361083    0.795706
C      2.198041    4.451971    1.376274
C      2.110698    5.738738    0.844049
C      1.336572    5.966920   -0.284844
C      0.654172    4.907209   -0.881200
C      0.727044    3.596341   -0.363036
C     -0.025517    2.534657   -1.060582
C      0.353976    2.132269   -2.352708
C     -0.345817    1.133003   -3.029957
C     -1.445800    0.523333   -2.430368
C     -1.845886    0.911893   -1.146956
N     -2.972785    0.285064   -0.535274
C     -4.190696    0.019677   -1.167333
C     -4.665257    0.335080   -2.458440
C     -5.960753   -0.050338   -2.815498
C     -6.779034   -0.715592   -1.912816
C     -6.322288   -0.995743   -0.622880
C     -5.018060   -0.613716   -0.236760
C     -4.293642   -0.725642    0.985562
C     -4.612851   -1.269058    2.250161
C     -3.660135   -1.267357    3.271840
C     -2.394458   -0.744422    3.046391
C     -2.057309   -0.198627    1.804854
C     -3.029234   -0.167777    0.784401
C     -1.136569    1.913108   -0.465964
C      2.144254    0.927804    0.694353
C      2.231445   -0.341479    1.282651
N      2.663454   -1.455096    0.505129
C      3.765013   -1.464316   -0.352646
C      4.740971   -0.485250   -0.635258
C      5.761521   -0.791173   -1.540251
C      5.829821   -2.041756   -2.139325
C      4.882663   -3.021959   -1.833431
C      3.842596   -2.738368   -0.920376
C      2.767564   -3.515518   -0.397251
C      2.345810   -4.846828   -0.610893
C      1.196724   -5.325406    0.023490
C      0.458365   -4.494154    0.854891
C      0.859327   -3.175751    1.088139
C      2.039892   -2.704032    0.476060
C      1.873668   -0.517844    2.622799
H      1.157592    0.442720    4.412704
H      0.935987    2.659884    3.362892
H      2.820737    4.295785    2.256030
H      2.649015    6.558569    1.312348
H      1.261243    6.966875   -0.703773
H      0.046890    5.106861   -1.763070
H      1.215340    2.591776   -2.834327
H     -0.023950    0.821044   -4.020334
H     -1.949740   -0.282376   -2.959191
H     -4.055577    0.882610   -3.170592
H     -6.332969    0.182635   -3.810512
H     -7.784736   -1.007609   -2.203798
H     -6.975412   -1.498742    0.084557
H     -5.595259   -1.697402    2.427417
H     -3.909346   -1.689849    4.241696
H     -1.651754   -0.764840    3.840083
H     -1.052741    0.174677    1.638390
H     -1.461663    2.249177    0.516855
H      2.399293    1.060092   -0.355164
H      4.725210    0.489032   -0.156199
H      6.515055   -0.041237   -1.769762
H      6.630322   -2.265891   -2.839581
H      4.952561   -4.003810   -2.292925
H      2.904547   -5.495957   -1.279008
H      0.870734   -6.347559   -0.150542
H     -0.450546   -4.866211    1.322497
H      0.245596   -2.534624    1.713432
H      1.969119   -1.485917    3.109063
