  116
 
 B          4.3821056132       -0.4271328376       -0.2216134567
 C          4.6945008450        0.9679777001       -0.8151295930
 C          3.6250083875        1.6729264857       -1.4078226400
 C          3.8200012213        2.9187317998       -1.9954020934
 C          5.0684299003        3.5088018393       -1.9854106090
 C          6.1513782189        2.8744052231       -1.3723113050
 C          5.9332714969        1.6276242828       -0.8064780263
 C          7.5054201237        3.5688396692       -1.3541447948
 C          7.3670122180        4.9146773605       -0.6259557406
 C          8.5855850991        2.7515171834       -0.6392144282
 C          7.9659381732        3.8064436490       -2.8004027747
 O          2.3304941205        1.2254905732       -1.4576076161
 C          1.9511320781        0.0788505243       -0.8323316215
 C          0.5982363261       -0.2142074483       -0.8359310554
 C          0.1421520429       -1.3698205575       -0.1908055724
 C          1.0554089818       -2.2341632393        0.4236344737
 C          2.4068971467       -1.9277846503        0.3944246436
 C          2.9009640196       -0.7631776259       -0.2222277035
 O          3.2453953558       -2.8032743082        1.0149620295
 C          4.6063143913       -2.6458413049        0.9698334524
 C          5.2660113261       -1.5474483985        0.3770050348
 C          6.6686941599       -1.6051658676        0.3736063124
 C          7.4033031267       -2.6315773936        0.9461410960
 C          6.7004676506       -3.6710808877        1.5605115277
 C          5.3196299510       -3.6818882843        1.5637310905
 C          8.9245920449       -2.6685818875        0.9374779659
 C          9.4319604037       -2.6644111471        2.3875948073
 C          9.5456962999       -1.4712366892        0.2120478344
 C          9.3914220275       -3.9491057569        0.2285439603
 N         -1.2274839771       -1.6604985821       -0.1697511850
 C         -1.7675049047       -2.7968743663       -0.7480304605
 C         -1.1027117107       -3.8988109983       -1.2581996499
 C         -1.8559673093       -4.8862090749       -1.8720293437
 C         -3.2330495371       -4.7480948079       -2.0044716416
 C         -3.8972061796       -3.6369742522       -1.5174932064
 C         -3.1735420796       -2.6515882272       -0.8491454691
 C         -3.4893357684       -1.3708028012       -0.2797756958
 C         -4.6564315387       -0.6307921538       -0.0737530547
 C         -4.6075429351        0.7541854271        0.2959055078
 C         -3.3493832885        1.3238924500        0.5657011617
 C         -2.1869841675        0.5121971887        0.6507120260
 C         -2.2429859135       -0.7891394302        0.1141400816
 C         -1.1655054549        1.3244443115        1.2350280002
 C          0.1161870665        1.0860276654        1.7357015606
 C          0.8561352063        2.1497413815        2.2081544195
 C          0.3485635772        3.4497746372        2.1966452587
 C         -0.9432158616        3.7048232276        1.7781299955
 C         -1.7081995792        2.6328359386        1.3410179602
 N         -3.0243416802        2.6126165373        0.9325027860
 C         -3.7538825603        3.7792987707        0.6438279141
 C         -4.2406118389        3.9854215893       -0.6447196105
 C         -4.9271551191        5.1475244194       -0.9424024497
 C         -5.1250511604        6.1111837904        0.0341779040
 C         -4.6381335592        5.9075499063        1.3155861655
 C         -3.9542571448        4.7454607564        1.6260747158
 C         -5.9643404776        1.1937550352        0.4026887146
 C         -6.5925762527        2.3728572155        0.8140550228
 C         -7.9718403031        2.4275323112        0.8438135320
 C         -8.7501744916        1.3262363684        0.5012077851
 C         -8.1578677387        0.1287479428        0.1305337708
 C         -6.7765011871        0.0761679902        0.0783767244
 N         -5.9685210832       -1.0100242752       -0.2058947188
 C         -6.4715299895       -2.3238399547       -0.2541341976
 C         -7.4065161547       -2.6772684134       -1.2227341875
 C         -7.9297673676       -3.9580377487       -1.2368208799
 C         -7.5266972269       -4.8873888840       -0.2911380212
 C         -6.5953000267       -4.5342428882        0.6727155628
 C         -6.0692408785       -3.2561596001        0.6982771314
 H          2.9736282486        3.4147997043       -2.4480836466
 H          5.1853378439        4.4756256936       -2.4502605849
 H          6.7461517950        1.1237645782       -0.3151687964
 H          6.6567646308        5.5659105157       -1.1279229927
 H          8.3292337055        5.4217678692       -0.5903719406
 H          7.0213822945        4.7555022368        0.3937644632
 H          8.7467732559        1.7980775821       -1.1363586736
 H          8.3167917654        2.5731410199        0.3995419225
 H          9.5249434378        3.3012050014       -0.6542876024
 H          8.9409684257        4.2897102301       -2.8088353814
 H          7.2669239640        4.4397249782       -3.3398233523
 H          8.0445885964        2.8584464073       -3.3293124113
 H         -0.0930181453        0.4492369829       -1.3307360248
 H          0.7162403631       -3.1136980500        0.9487373795
 H          7.1841966137       -0.8007085911       -0.1193573573
 H          7.2235709013       -4.4887034725        2.0319821644
 H          4.7709912638       -4.4943284948        2.0180521427
 H         10.5200246642       -2.6754255833        2.4042990579
 H          9.0865170280       -1.7702627819        2.9030834663
 H          9.0735229300       -3.5320044454        2.9348902702
 H         10.6304719467       -1.5581050887        0.2325014914
 H          9.2747006508       -0.5369754934        0.6977714950
 H          9.2301954820       -1.4388850212       -0.8283853936
 H          9.0323871785       -4.8387026944        0.7387004472
 H          9.0187802291       -3.9692232099       -0.7939214022
 H         10.4786841916       -3.9869320738        0.2015637771
 H         -0.0283558483       -3.9766138703       -1.1979219616
 H         -1.3629688079       -5.7592427018       -2.2725100668
 H         -3.7961465633       -5.5162521191       -2.5135129392
 H         -4.9556512290       -3.5385805399       -1.6808449148
 H          0.5197605976        0.0886752853        1.7787863068
 H          1.8519826013        1.9744029019        2.5880636273
 H          0.9675526247        4.2642466271        2.5418468902
 H         -1.3417521076        4.7072657960        1.7934903840
 H         -4.0774110184        3.2314849856       -1.4001860650
 H         -5.3043345106        5.3035954875       -1.9418943079
 H         -5.6591494135        7.0188667118       -0.2026278760
 H         -4.7968144431        6.6532537237        2.0803774880
 H         -3.5961771987        4.5692575708        2.6293231738
 H         -6.0213190247        3.2294619487        1.1224668205
 H         -8.4554554052        3.3423742609        1.1529973722
 H         -9.8266475093        1.3965302763        0.5422816493
 H         -8.7589432249       -0.7387674374       -0.0930457288
 H         -7.7008016794       -1.9544608387       -1.9691543355
 H         -8.6507427050       -4.2317279164       -1.9928269814
 H         -7.9368742946       -5.8857998635       -0.3063598148
 H         -6.2801882899       -5.2557198834        1.4114977456
 H         -5.3465626301       -2.9719309664        1.4482622469
