45
 xtb: 6.7.1 (edcfbbe)
O            3.82574305185784       -2.52907366831472       -0.63680214605302
S            2.93030661212665       -1.41391430324968       -0.90422491196701
O            2.52621370929360       -1.20246375924405       -2.26881418104901
C            3.69811245332983        0.08545896666265       -0.28818806778836
C            4.57815092734101        0.02941158537417        0.78076484292871
C            5.11234551904459        1.22015936175975        1.24980854790814
C            4.72502270174217        2.40045961565500        0.62484869634979
N            3.88689807605042        2.44829227524493       -0.39312945177000
C            3.38215370279243        1.31299459573986       -0.85053390145299
C            1.47434923601148       -1.58064101432233        0.13354127225571
C            1.50022970970558       -2.39313682541905        1.25091025326473
C            0.37679906624088       -2.44766546977866        2.06208169047403
C           -0.73904882960562       -1.68701257335941        1.75901153086505
C           -0.75742945943699       -0.87306095827684        0.62551586205820
N           -1.89181479739188       -0.09884673678648        0.31791028839897
C           -1.79213944796637        1.29477918957326        0.21815496325283
C           -0.62342544871512        1.98187843097244        0.52326031586523
C           -0.56095652619303        3.36365890568314        0.42084479233125
C           -1.67050545121614        4.08436313389093        0.02659055333026
C           -2.85589125854770        3.41770699236519       -0.24619921102253
C           -2.92199124866261        2.03971711744576       -0.14439965269565
O           -4.14431765708019        1.45523517227026       -0.39805572207301
C           -4.22073380352133        0.08789893477265       -0.30311555092878
C           -5.44920152002371       -0.48462745987211       -0.57973088018473
C           -5.60468624890235       -1.86234352324547       -0.54077490491517
C           -4.51738222075412       -2.65971160352739       -0.24463920312975
C           -3.28434213947983       -2.08968955444148        0.03564792653414
C           -3.11976501294870       -0.70997917372551        0.03499731520486
C            0.36796738162413       -0.82657912186047       -0.19596033523102
H            4.77877855063991       -0.88491849582087        1.25227971505297
H            5.71648732489642        1.29792685721959        2.09898774811137
H            5.04279896267664        3.39464391204076        0.91169306833537
H            2.73266533319216        1.34088140902801       -1.75933595408031
H            2.37984583404100       -2.99659910291072        1.45545698420862
H            0.36661234303558       -3.10017127767336        2.93179140378824
H           -1.60984829735239       -1.72998421598490        2.39586877405310
H            0.25892694377008        1.42164081779362        0.86619009767272
H            0.38488199291952        3.85400537269066        0.68419969072929
H           -1.60042173301431        5.15611645938902       -0.02850228092275
H           -3.72400655119219        3.95845852728039       -0.51513839097457
H           -6.25994205464161        0.18706698494028       -0.83432692165241
H           -6.56503697671710       -2.27956847284290       -0.77452079137429
H           -4.61944098468610       -3.72436342698815       -0.25606912142247
H           -2.44223539663653       -2.72841637346550        0.23125560612622
H            0.39177899135026       -0.22978901997436       -1.08446486046432
