92
 xtb: 6.7.1 (edcfbbe)
C           -9.29201565350139       -2.04145107825561       -1.56001706427125
C           -7.98082897589474       -1.45719332089439       -1.12991969522170
C           -6.80077001042430       -1.82995554862182       -1.75564184604714
C           -5.57907657655919       -1.29192169317307       -1.38277414043113
C           -4.34660277521881       -1.76713788862965       -2.09961751357714
C           -5.50803446819907       -0.33813967684819       -0.35343861602943
B           -4.11914384452816        0.31049613476347        0.01492474870530
C           -3.92978838170492        1.87525729536643       -0.02862190232595
C           -4.23335719571656        2.63604892733700       -1.16997932551208
C           -4.66652755400474        1.96541341155698       -2.44082755637872
C           -4.10377378695107        4.01452585889478       -1.14891534289875
C           -3.68652317115816        4.68801577519400       -0.00860753686046
C           -3.53576712234287        6.17899198726700       -0.02589941433598
C           -3.39191696929976        3.93992725144180        1.11826299157579
C           -3.50379612909557        2.55635751899193        1.12221453847580
C           -3.14905262233548        1.82228768689396        2.38474563111964
N           -3.02381885671313       -0.52414511781028        0.39097616421744
C           -3.09710943400192       -1.79043967604779        0.97651268889077
C           -4.21084824108969       -2.51060274812878        1.38234903082602
C           -4.01265625806736       -3.74485027608814        1.97524734493734
C           -2.73629604137618       -4.25713182880500        2.18408048693626
C           -1.61991257346947       -3.53410712901839        1.81242479006111
C           -1.80145749450889       -2.29695989536345        1.21203455423782
C           -0.88102392569200       -1.30060481897245        0.73330404554276
C            0.50181636199714       -1.25374701824891        0.67727631298664
C            1.12013451381401       -0.13611650582342        0.13063112042537
C            2.58658328448781       -0.05096341127403        0.06576907373889
C            3.23267773885226        1.15638916993567        0.36538161475917
C            4.60532715192769        1.28567379944523        0.31920372160957
C            5.35234016313809        0.17670838795334       -0.05190577974543
C            4.72224437010892       -1.05635589058209       -0.33536837391006
C            3.34158842102014       -1.16497984808249       -0.27702992096778
C            5.77159588152832       -1.99106291396287       -0.63264204469695
C            5.78185789105632       -3.33112544703760       -0.99566216743312
C            6.99619328461938       -3.94216930541155       -1.23580723222061
C            8.18884255297962       -3.22967700402037       -1.13270501717050
C            8.20423847427720       -1.89559014509145       -0.77309755876469
C            6.98857538257051       -1.28230507430824       -0.50639300160247
N            6.72065913082045        0.02662476142575       -0.15645152589399
C            7.67368698930468        1.03251321015451        0.05289267744302
C            7.54220382983315        2.26382683830936       -0.58302373693459
C            8.48193035489080        3.25499526466090       -0.36957020219773
C            9.56192146976772        3.02603107008765        0.46673367807530
C            9.69683424523349        1.79988311734080        1.09649310821522
C            8.75635477519388        0.80626506691192        0.89805968463617
C            0.32915815383353        0.90434308893320       -0.37050674871751
C           -1.05093980952358        0.86732414417323       -0.33020742979491
C           -1.66541498304787       -0.23277019710762        0.24983841903611
C           -6.70389631196297        0.04424416215620        0.27338231055379
C           -6.69265664406843        1.03567317879936        1.40011945476729
C           -7.91122749331825       -0.51783073078265       -0.11310807731503
H           -9.64301929413602       -1.54707595034566       -2.46473885388324
H          -10.04669743812124       -1.91623602031559       -0.78757029584246
H           -9.18675007955099       -3.10421626976310       -1.78016969880735
H           -6.83323801087644       -2.56164757364605       -2.55220884670007
H           -4.59952829998662       -2.12049113498602       -3.09716525089960
H           -3.89602657529034       -2.59696803232701       -1.55366378923924
H           -3.60113768203425       -0.98037994327132       -2.18637716959199
H           -5.54684569290133        1.35235503368669       -2.27274402311554
H           -3.87516464774656        1.31522055327839       -2.81897628305168
H           -4.89258989629132        2.70336926061858       -3.20782982869019
H           -4.33431568695144        4.58164517088071       -2.04245954465806
H           -3.63188105047459        6.58063352413614        1.00409238378833
H           -4.28862069597607        6.64420717158119       -0.66060318170708
H           -2.53749595451679        6.45210131433136       -0.39700705679762
H           -3.06755900118065        4.44390653253094        2.01701679330795
H           -2.10450966507773        1.51364449211320        2.35306167007103
H           -3.75813035717710        0.93128450880100        2.51708990492300
H           -3.28293255520257        2.46854040989803        3.24968548433658
H           -5.20851132417218       -2.12766921143943        1.24140038617765
H           -4.87169388881784       -4.31940299970694        2.28910551967987
H           -2.62145106976296       -5.22324677835842        2.65203028191728
H           -0.62556598536939       -3.91510262761511        1.98889395109007
H            1.09004858270560       -2.06851723824117        1.07067702718410
H            2.63521364829953        2.00498970502153        0.66470514084116
H            5.08044915105789        2.21999778039247        0.57778925154565
H            2.85949707995791       -2.10177915698091       -0.51310089576233
H            4.85557900243567       -3.87819878260663       -1.09144571790131
H            7.02646957457180       -4.98479666420138       -1.51614254685341
H            9.12243682813024       -3.73073395895185       -1.34139589797267
H            9.13264142639143       -1.34840416344049       -0.71427380850165
H            6.71109710706097        2.43029383494915       -1.25347931477101
H            8.37468790575947        4.20797997885345       -0.86781661586087
H           10.29604859590204        3.80105098331356        0.62555567186311
H           10.53465860389453        1.61901220864140        1.75208854600165
H            8.84558044933049       -0.14226361207095        1.40489530586983
H            0.81459019519416        1.75368791809162       -0.82892503444482
H           -1.62742731336969        1.67977685987288       -0.74235392228713
H           -6.22833005601942        1.96733524468673        1.08670730404373
H           -6.12538935255991        0.64745999082421        2.24497270204935
H           -7.70585298072096        1.24516589794892        1.73696786025471
H           -8.81981716942029       -0.21610341789877        0.38962063413454
