  99
 
 C         -8.6544020337       -4.1041003809        2.8733021042
 C         -7.6288880973       -3.2817294351        2.1579737437
 C         -7.9184240014       -2.6925541846        0.9305030740
 C         -6.9875362024       -1.9175435081        0.2720479958
 C         -5.7264991579       -1.7048436324        0.8342096317
 N         -4.7749353471       -0.9267059717        0.1793708346
 C         -5.1668093493        0.1603055249       -0.6139288555
 C         -4.5110321591        0.4189163187       -1.8192277817
 C         -4.8718735235        1.5026434943       -2.5920431414
 C         -5.8957592367        2.3550094324       -2.1936040464
 C         -6.2923168378        3.5311301996       -3.0288016238
 C         -6.5542995599        2.0847541201       -0.9960807488
 C         -6.2003921892        1.0070324476       -0.2115583593
 C         -3.4248278853       -1.2346461958        0.2495986870
 C         -2.9823725681       -2.5758934118        0.2505314831
 C         -1.6507284203       -2.8839233493        0.1686052265
 C         -0.7029495861       -1.8441626103        0.0968108101
 C         -1.1551994815       -0.4931636829        0.1664592898
 C         -2.4792392523       -0.1867140300        0.2314756413
 C          0.0004110099        0.4574654168       -0.0028575340
 C          0.3192620390        1.4177961374        1.1219745997
 C          0.7744231277        1.1179183340        2.3753721591
 C          1.1414852833        2.1785992112        3.2261903947
 C          1.6662187427        1.9054041040        4.4956643457
 N          2.1319598319        1.6812393532        5.5255774617
 C          1.0339283867        3.5105221713        2.7853826234
 C          0.5790442265        3.8019769913        1.5223777171
 C          0.2247379246        2.7541088473        0.6670178745
 C         -0.2144287300        2.7484533941       -0.6947390982
 C         -0.5638253840        3.7895280903       -1.5603434237
 C         -1.0200425874        3.4878130843       -2.8204589338
 C         -1.1338225399        2.1521605864       -3.2481873712
 C         -1.6597943969        1.8689993590       -4.5149440545
 N         -2.1266321787        1.6367265794       -5.5425835569
 C         -0.7716118408        1.0981600496       -2.3870202448
 C         -0.3150983975        1.4081838160       -1.1365926620
 C          1.1543395082       -0.4970512041       -0.1619953399
 C          2.4787371700       -0.1933906974       -0.2325636482
 C          3.4227704786       -1.2428231807       -0.2380190191
 N          4.7734199188       -0.9359810881       -0.1739952982
 C          5.1681414476        0.1614839216        0.6033396506
 C          6.2025537311        1.0007385026        0.1875861897
 C          6.5592655213        2.0888864950        0.9562237336
 C          5.9027896575        2.3772354131        2.1507005579
 C          6.3008768094        3.5662051007        2.9667908018
 C          4.8780973867        1.5323156801        2.5625571969
 C          4.5144747966        0.4382409779        1.8057299161
 C          5.7227473045       -1.7245872321       -0.8195283779
 C          5.4231397587       -2.3268013730       -2.0446617546
 C          6.3611215506       -3.1117947302       -2.6797321105
 C          7.6208615688       -3.3216821838       -2.1250255733
 C          8.6364559710       -4.1588703585       -2.8373454512
 C          7.9133205838       -2.7169504008       -0.9069248181
 C          6.9840452668       -1.9315655621       -0.2570725130
 C          2.9783664476       -2.5833192793       -0.2204074758
 C          1.6463617191       -2.8883174625       -0.1331949940
 C          0.7001229200       -1.8463298889       -0.0745293971
 C         -5.4301597963       -2.2908436431        2.0674027367
 C         -6.3707172355       -3.0663422726        2.7117751076
 H         -9.2882348239       -3.4598302910        3.4840632942
 H         -8.1816920418       -4.8304005780        3.5299872932
 H         -9.2935944376       -4.6277934390        2.1660975423
 H         -8.8870602313       -2.8531191298        0.4798783069
 H         -7.2210606731       -1.4838194957       -0.6889437131
 H         -3.7244497483       -0.2420292500       -2.1506615930
 H         -4.3532546069        1.6821284023       -3.5222308805
 H         -7.3088968457        3.4051072784       -3.4008874971
 H         -6.2676299297        4.4449654706       -2.4367965919
 H         -5.6241727423        3.6442240789       -3.8781582568
 H         -7.3505365933        2.7384441702       -0.6702080810
 H         -6.7074848045        0.8212919256        0.7240650204
 H         -3.7221556507       -3.3631953561        0.2602621696
 H         -1.3296368741       -3.9132314737        0.1210716566
 H         -2.8143616471        0.8396051866        0.2615825699
 H          0.8646536577        0.0957376920        2.7163566843
 H          1.3273361238        4.3039086520        3.4583999181
 H          0.5144832826        4.8261170162        1.1856307915
 H         -0.4944792678        4.8166175657       -1.2336859694
 H         -1.3097065534        4.2759308843       -3.5012491191
 H         -0.8664023555        0.0731225177       -2.7180214413
 H          2.8152165058        0.8319796487       -0.2765943612
 H          6.7081424747        0.8008656163       -0.7459328711
 H          7.3561179519        2.7365942763        0.6200759308
 H          7.3317118336        3.4656763396        3.3054613508
 H          6.2357833343        4.4756040225        2.3707242742
 H          5.6579052670        3.6703592264        3.8364598414
 H          4.3611210301        1.7255900206        3.4909014213
 H          3.7274356179       -0.2167196095        2.1477938290
 H          4.4564270834       -2.1578290159       -2.4954166132
 H          6.1171728348       -3.5656632115       -3.6292294164
 H          9.1093469805       -3.5776696064       -3.6298667083
 H          9.4126540248       -4.4949475598       -2.1544659083
 H          8.1681279615       -5.0269262110       -3.2965629940
 H          8.8821810561       -2.8719144809       -0.4548440726
 H          7.2202209609       -1.4853402530        0.6975179407
 H          3.7170110048       -3.3717507304       -0.2201847336
 H          1.3238456920       -3.9164361501       -0.0716092597
 H         -4.4639832050       -2.1176178790        2.5176751081
 H         -6.1276307738       -3.5073794028        3.6675061306
