  45
 
 O          3.1012343167        2.2095146357        1.3197817619
 C          2.3613383852        1.4093674484        0.7630275108
 C          2.1311182452        0.0503862023        1.2852866013
 C          3.0497776752       -0.4845941790        2.1891077814
 C          2.8820539816       -1.7597664817        2.6877287115
 C          1.7796243461       -2.5040919463        2.2941634657
 C          0.8571858728       -1.9755563463        1.4077027020
 C          1.0240582816       -0.7008561381        0.8795504419
 C         -0.0120139292       -0.1019602534       -0.0507238519
 C         -0.6362962986       -1.2289378715       -0.8633942252
 C          0.1526460872       -1.8612731599       -1.8207038256
 C         -0.3492854847       -2.9105779646       -2.5674349737
 C         -1.6469530952       -3.3513430240       -2.3621421903
 C         -2.4307158761       -2.7410828820       -1.3992459970
 C         -1.9284025446       -1.6884177175       -0.6506125079
 C         -1.0530664375        0.6746176644        0.7608920395
 C         -0.9960303902        0.7628204004        2.1461640731
 C         -1.9359643979        1.4934047733        2.8542325957
 C         -2.9457626236        2.1415034591        2.1692377356
 Br        -4.2512240891        3.1535278951        3.1409261461
 C         -3.0285649046        2.0688069849        0.7896254740
 C         -2.0811547164        1.3397224001        0.0969624360
 C          0.6207065647        0.9307187697       -0.9680797065
 C          0.0954720430        1.1985858473       -2.2267602125
 C          0.6175764116        2.2085201656       -3.0161032604
 C          1.6696440833        2.9867848398       -2.5569236276
 C          2.2065814797        2.7286323405       -1.3133148350
 C          1.6967364413        1.7009120900       -0.5186592637
 H          3.8910763279        0.1275538735        2.4808181953
 H          3.5996086896       -2.1705632846        3.3818223805
 H          1.6338428609       -3.5008959964        2.6830327678
 H         -0.0030306619       -2.5622618650        1.1233483762
 H          1.1670219053       -1.5233272718       -1.9794483260
 H          0.2743534256       -3.3867360488       -3.3097944575
 H         -2.0415104871       -4.1700130935       -2.9457029699
 H         -3.4397288376       -3.0849016563       -1.2236392431
 H         -2.5502395098       -1.2318552099        0.1049362051
 H         -0.2172375594        0.2607089630        2.6980334635
 H         -1.8774529909        1.5535618169        3.9301870651
 H         -3.8213554967        2.5765855405        0.2622357300
 H         -2.1523093001        1.2884351296       -0.9774056708
 H         -0.7176999108        0.5991363516       -2.6080266510
 H          0.1989618893        2.3896355180       -3.9949918545
 H          2.0693895507        3.7816732987       -3.1681093830
 H          3.0359896774        3.3038959823       -0.9275876272
