62

C     -1.769605   -3.473929   -2.270671
C     -1.589567   -2.468097   -3.208328
C     -0.755878   -1.393056   -2.912579
C     -0.097177   -1.309909   -1.667829
N      0.788949   -0.204887   -1.492787
C      0.448176    1.129703   -1.722755
C     -0.785442    1.732123   -2.046568
C     -0.839193    3.121561   -2.183998
C      0.294905    3.899576   -1.991374
C      1.510134    3.302610   -1.645466
C      1.590297    1.900048   -1.500118
C      2.651917    1.012144   -1.157239
C      4.014231    1.213114   -0.843233
C      4.847987    0.114155   -0.623141
C      4.348502   -1.176550   -0.734667
C      3.003279   -1.399463   -1.041042
C      2.150288   -0.290891   -1.204785
C     -0.287067   -2.307883   -0.684535
C      0.291998   -2.307110    0.684971
C      1.132220   -3.391835    1.034559
C      1.777108   -3.469620    2.271314
C      1.594893   -2.464003    3.208777
C      0.758863   -1.390837    2.912818
C      0.099966   -1.309346    1.668060
N     -0.788530   -0.206249    1.492824
C     -2.149662   -0.295193    1.204728
C     -3.000277   -1.405596    1.041030
C     -4.345934   -1.185575    0.734451
C     -4.848154    0.104049    0.622717
C     -4.016771    1.204801    0.842803
C     -2.654071    1.006763    1.156984
C     -1.594392    1.896971    1.499888
C     -1.517257    3.299712    1.645139
C     -0.303338    3.899325    1.991079
C      0.832434    3.123775    2.183804
C      0.781678    1.734212    2.046463
C     -0.450632    1.129104    1.722655
C     -1.124915   -3.394505   -1.033917
H     -2.415849   -4.318809   -2.493577
H     -2.085598   -2.523496   -4.173662
H     -0.593798   -0.637920   -3.680213
H     -1.691188    1.142848   -2.157866
H     -1.786025    3.597204   -2.426900
H      0.235553    4.979659   -2.093268
H      2.388442    3.919270   -1.480678
H      4.418557    2.219716   -0.790094
H      5.896836    0.272240   -0.386524
H      5.010966   -2.026368   -0.589099
H      2.637741   -2.413919   -1.156453
H      1.314881   -4.188150    0.313345
H      2.425209   -4.313039    2.494358
H      2.091043   -2.518132    4.174122
H      0.595137   -0.635922    3.680318
H     -2.632601   -2.419261    1.156593
H     -5.006572   -2.036813    0.588879
H     -5.897309    0.259877    0.385962
H     -4.423237    2.210533    0.789530
H     -2.396889    3.914461    1.480263
H     -0.246330    4.979542    2.092911
H      1.778225    3.601481    2.426728
H      1.688676    1.146878    2.157853
H     -1.305830   -4.191097   -0.312563
