98
 xtb: 6.7.1 (edcfbbe)
C            7.05953858256255       -1.32092923054698        0.33044259258196
C            5.66816118136392       -0.77041002300945        0.24046902067044
C            5.16072275598247        0.06547445594950        1.22534556265743
C            3.87128549861649        0.55622201927105        1.14443168207602
C            3.05340970283666        0.22193078193523        0.07201264511567
C            1.67101788083216        0.73952522115514       -0.01501095846481
C            0.59228291945851       -0.16303691100603       -0.00005841421276
C            0.87030891996892       -1.61384255437815       -0.03709655708782
C            1.59915106457155       -2.22553609796944        0.97689691720634
C            1.87152100481466       -3.57798417541877        0.92992597746728
C            1.43073696580734       -4.35991951043646       -0.13090569862954
C            1.72968853618287       -5.83759619875668       -0.19130152001029
C            1.08164746465719       -6.57013200441123        0.98547220037104
C            3.23899373784265       -6.08668129021785       -0.22263731083509
C            0.70313510321048       -3.74500903123620       -1.14098533781534
C            0.42431344702931       -2.39258709359108       -1.09815538716941
C           -0.70775035117967        0.31227159748429        0.05545958593847
C           -1.79399478819809       -0.68742660703386       -0.00035303051175
C           -1.88782326046741       -1.71865617079002        0.92832879462680
C           -2.88303185355665       -2.67129261604728        0.82024199118478
C           -3.80536313003348       -2.63200362416320       -0.21703721543614
C           -4.88759738519337       -3.67842528712740       -0.32114602807898
C           -4.76440318724219       -4.45990577271181       -1.63063977508883
C           -6.27356066101476       -3.04134958238978       -0.19666659636556
C           -3.70224359607064       -1.60510142354430       -1.14902325739833
C           -2.71273195425488       -0.64877434874598       -1.04621186135895
C           -0.96578860474918        1.70561043899183        0.04176226130645
C            0.11081147836609        2.58921179166181       -0.24164909625980
C           -0.21448163999838        3.92674752762703       -0.65248649141066
N            0.72420876965439        4.75757789883249       -1.22819101527712
C           -1.51908516454031        4.35069616764227       -0.62217653686619
C           -2.56774932575537        3.56485048981502       -0.10838763885510
C           -3.90959660350389        4.06428049167886        0.03081744225864
C           -4.28715468718720        5.33714894261976       -0.43324851761171
C           -5.56862376685727        5.80624301465383       -0.30537449059086
C           -6.54335235328429        5.01840147886647        0.30703935140721
C           -6.21227468667519        3.77359694092626        0.77269241119161
C           -4.90723884552231        3.26486487506107        0.64707737851898
C           -4.54292814621748        1.97633580914273        1.15217677316386
N           -5.43908652912814        1.22405848554821        1.89940979856947
C           -3.26862996799861        1.51223360647747        0.96939810403757
C           -2.27812499539477        2.24604912999990        0.28584435060049
C            1.43630068781288        2.09598184610099       -0.15972225479667
C            2.62791651126918        2.97363217359733       -0.14033726818367
C            2.82620333994937        3.84543492319276        0.92819598203170
C            3.98283989116604        4.59872414653166        1.01642251474375
C            4.97190759789086        4.50000154660486        0.04798168631044
C            6.22508549554931        5.31847166034593        0.12020658421185
C            4.76974798229819        3.63127363301010       -1.02017929934051
C            3.61968516818081        2.87439719389857       -1.11402056311978
C            3.55847954894519       -0.61746712034904       -0.91534328759619
C            4.84745869356781       -1.10395280545128       -0.83048867124349
H            7.02954440967708       -2.35854036070472        0.67084996667072
H            7.65869865115904       -0.75087423795397        1.03768589458694
H            7.54705990879850       -1.30391479632232       -0.64059053850469
H            5.78191269631353        0.33719786546985        2.06678984610220
H            3.49137491065380        1.20095275552413        1.92277298620776
H            1.94731010687063       -1.63588236999966        1.81252800933067
H            2.43696809392791       -4.02682808424228        1.73375962589554
H            1.29859415883639       -6.23582247428018       -1.11684815532807
H            1.24851894390657       -7.64235385649333        0.90398436217600
H            1.49898562075066       -6.22925647137462        1.93040044394607
H            0.00852785025440       -6.38673141732409        1.00049973240407
H            3.44323454130326       -7.15072995074809       -0.33124086123958
H            3.69073831361902       -5.55859046515644       -1.05761467406504
H            3.70628572359061       -5.74054959249738        0.69594262300468
H            0.34909334669335       -4.33401785685843       -1.97647944503632
H           -0.13849075845994       -1.93295036817340       -1.89768031453087
H           -1.18851932805766       -1.76231481344252        1.75089977920011
H           -2.94200028823906       -3.46086903769687        1.55747757835816
H           -4.76129589892057       -4.38334489178746        0.50992527127617
H           -4.92455271952867       -3.80947407332461       -2.48513637126445
H           -5.50256095522642       -5.25931703595407       -1.66319098590560
H           -3.77293802924325       -4.89990170511403       -1.71317710625830
H           -7.04610662410021       -3.80652986017551       -0.23588273747018
H           -6.36314927581743       -2.51061747346017        0.75014376780922
H           -6.44769080515504       -2.33489202293567       -1.00365253842567
H           -4.40190833780970       -1.55023085540746       -1.96996453630427
H           -2.64528572271827        0.14172051113829       -1.77943264715051
H            1.69637400242819        4.56417080722796       -1.05791901913379
H            0.47899382049242        5.73133131097948       -1.26772875647044
H           -1.71675404901349        5.34683540030927       -0.98658886799200
H           -3.55804343764480        5.96949140410301       -0.91668813816153
H           -5.82515289130078        6.78789981751573       -0.67798713088261
H           -7.55049958780317        5.39217900840234        0.41349669796794
H           -6.97446620993604        3.18078896487133        1.25441505441966
H           -6.41259069573541        1.33475706816442        1.67099062784008
H           -5.16480668722605        0.26035403471782        2.01178921143713
H           -3.01363401414149        0.56294287338316        1.40921291965329
H            2.06483169284269        3.92475983580133        1.69140770532022
H            4.11878437768071        5.26725446996214        1.85342259885455
H            6.40709741760926        5.63939114189230        1.16734542766225
H            6.11387563209562        6.23100251309727       -0.48839815147744
H            7.08245141081851        4.75862090164579       -0.23688205624320
H            5.53172103399925        3.54251221174332       -1.78267308955540
H            3.48187183115557        2.20010552239668       -1.94664492568093
H            2.93662432610015       -0.88459229775633       -1.75823648979006
H            5.22584592977813       -1.75535840030806       -1.60728066470273
