98
 xtb: 6.7.1 (edcfbbe)
C            7.46835111764943       -0.57180099760602        0.32254454502286
C            6.00125122329810       -0.26906426661745        0.25668453599154
C            5.37313013926343        0.51018729454079        1.21649990803968
C            4.02195862841187        0.79146397001118        1.12984288263919
C            3.26217656305332        0.29668480880179        0.07715008766295
C            1.81505687619781        0.58328886733779       -0.01238214964369
C            0.90874526090572       -0.46962561332029        0.00286711168940
C            1.37944344610094       -1.86422765439687        0.01786421517005
C            2.23190416699097       -2.33036501031171        1.01402721479666
C            2.65162430236462       -3.64622827509414        1.02122902110986
C            2.24021771184498       -4.53770711598119        0.03915699325323
C            2.69500008765037       -5.97602941970637        0.06742994006494
C            3.51498410455460       -6.31339464941123       -1.17957306575226
C            1.49793732204787       -6.91973517704913        0.20221701618099
C            1.39652831800064       -4.06734429606188       -0.96056642691995
C            0.97087123087948       -2.75535108498428       -0.97184391769125
C           -0.48393961448065       -0.19725330558108        0.04249795778605
C           -1.41332698239368       -1.34035924958520        0.06374958827980
C           -1.32397038492348       -2.33486647766307        1.03387804295355
C           -2.17956416931299       -3.41933515360686        1.01006358851946
C           -3.14334907841413       -3.55332689031616        0.01988127984344
C           -4.06434842828991       -4.74809354611539        0.00167117116448
C           -3.83435528403585       -5.58609376989458       -1.25786993390469
C           -5.52787487006659       -4.31413200234547        0.10621616993980
C           -3.22711482437945       -2.56151252210891       -0.95192675940755
C           -2.37851749708153       -1.47483260012120       -0.93247140852839
C           -0.94103439277096        1.11578427702354        0.00603302403329
C           -0.02190919994236        2.18090130375718       -0.23845890163861
C           -0.55514713884948        3.41608471307408       -0.68036513544649
N            0.22801781789123        4.46267438060047       -1.09661795771243
C           -1.96053785588068        3.60595886414903       -0.77223837893141
C           -2.86059863333267        2.66892907062044       -0.34162936662358
C           -4.30019387537133        2.87330232115388       -0.35672178696834
C           -4.89197990948232        3.88103820310087       -1.11075311279177
C           -6.26601498930141        4.08146087849248       -1.10668017327574
C           -7.07884793894489        3.25651391836754       -0.34930415233454
C           -6.52358213390471        2.23480771017266        0.39467195242698
C           -5.13421216980597        2.01851614130304        0.41126493811300
C           -4.53115861274116        0.97385711864863        1.17288213025195
N           -5.28532373758088        0.14938364556496        1.97594066892914
C           -3.16460591201986        0.69474306335288        1.02712743240143
C           -2.34241703556791        1.44427404943719        0.21857704071391
C            1.37150971014912        1.90950263812987       -0.12995362884208
C            2.37218454967908        2.98299656285313       -0.06287400839311
C            2.28323519111025        3.95987631872794        0.93299006216570
C            3.25185727447599        4.93468810964151        1.05322008210265
C            4.34007361913960        4.97389539850261        0.18825019527033
C            5.40721796108011        6.01534660400389        0.33811655073054
C            4.42691192910805        4.00646375956726       -0.80667238130582
C            3.46526639743932        3.02432173216937       -0.93111162478069
C            3.88983061221505       -0.48787932105408       -0.88638426561354
C            5.23844518138982       -0.76342018297774       -0.79650903777740
H            7.67343156203449       -1.60243566261179        0.05749360395103
H            7.85318085553557       -0.36911569121699        1.34124724574639
H            8.01737661360294        0.08955418973523       -0.37392481701247
H            5.94567871681507        0.90219944315500        2.04423208510770
H            3.54801320352967        1.39256237857546        1.89120471068043
H            2.55430050236672       -1.66102672410333        1.79654796766335
H            3.30806222649359       -3.98960221706549        1.80870371638641
H            3.33637558496949       -6.11490192495186        0.94422528563398
H            4.36293458966248       -5.63953536498953       -1.26662436202516
H            3.88660464355948       -7.33550268933178       -1.12334214105798
H            2.90813010083039       -6.21964279254575       -2.07763232970373
H            1.83467577334649       -7.95189921345671        0.28664586160351
H            0.91658377401185       -6.67075197481058        1.08680521861679
H            0.84550735286620       -6.84392457801089       -0.66606851874191
H            1.06064955824431       -4.73437087953232       -1.74328855010914
H            0.31757763193999       -2.41050682775916       -1.76122360627822
H           -0.58761516769278       -2.24913566924536        1.82022299060845
H           -2.09374331651074       -4.17793001080810        1.77743432806716
H           -3.83164980394378       -5.37166099259977        0.87451783787415
H           -4.07981652286832       -5.01479819245853       -2.14772628548391
H           -4.46022861970616       -6.47747059375030       -1.23645913306857
H           -2.79434653271721       -5.89280824101190       -1.31822542152184
H           -6.17902812211737       -5.18488882802177        0.15791798650008
H           -5.68300296932827       -3.71453052320243        1.00410354626099
H           -5.81841477040135       -3.71777515759681       -0.75304185836239
H           -3.96347597752878       -2.63916414022826       -1.73821361251787
H           -2.45575767564468       -0.71617441367887       -1.69767813363790
H            1.19989285404187        4.27964939471263       -1.29772631704363
H           -0.22339584574219        5.16985804917084       -1.65311210308804
H           -2.29418298170204        4.55581533504164       -1.16218480143803
H           -4.27989135169771        4.51920002119409       -1.72993722710328
H           -6.69458324491889        4.87563263778696       -1.69934795497161
H           -8.14835092949349        3.40506130324185       -0.34369844227346
H           -7.17700559638612        1.58548547846614        0.95714599766057
H           -6.15584638323700        0.50314741769276        2.33335104749222
H           -4.77076925489761       -0.45379664102834        2.59727807088051
H           -2.76404841007902       -0.14038545520208        1.58028704021759
H            1.44501367873703        3.93736098702046        1.61411324899135
H            3.16642300871835        5.67596696172254        1.83468282596591
H            4.99919329674982        6.92574111306851        0.78081587970368
H            5.85213219498203        6.25890659398088       -0.62157310400956
H            6.19636635613778        5.64928859524193        0.99553894351064
H            5.26488130038096        4.02099766806574       -1.48999193386371
H            3.55190961682547        2.28442761884937       -1.71427875303107
H            3.31390691989885       -0.87853367802004       -1.71384823465005
H            5.71273762392900       -1.37295138547920       -1.55555391351176
