  68
 
 O         -5.2484120692        0.2800413541        1.7161994634
 P         -4.2432608028        0.2340345933        0.6358760834
 C         -3.4110202280        1.8296728517        0.3645288451
 C         -3.5472774728        2.7986207612        1.3491263753
 C         -2.9205052032        4.0241881739        1.2062874122
 C         -2.1572680700        4.2809659685        0.0784752792
 C         -2.0284416740        3.3171073787       -0.9102738688
 C         -2.6552330525        2.0918900864       -0.7725203070
 C         -4.9531457940       -0.2350364401       -0.9758566051
 C         -6.2859649715        0.0846250854       -1.1968448738
 C         -6.8793061360       -0.2201945327       -2.4089023821
 C         -6.1392837321       -0.8450866158       -3.4004846122
 C         -4.8097428242       -1.1693114854       -3.1784556578
 C         -4.2127618723       -0.8657187043       -1.9678664720
 C         -2.9326752485       -0.9921971365        0.9388280623
 C         -3.4090154003       -2.2719037232        1.3331888437
 C         -2.5223155777       -3.3125764006        1.6193579294
 C         -1.1753427467       -3.0560489162        1.4969328877
 N         -0.0984400129       -3.8593062149        1.6971049264
 C          1.0768000976       -3.1635925917        1.4453215674
 C          2.3708499703       -3.5875325982        1.5275126146
 C          3.3996568829       -2.6320281998        1.1938753207
 C          3.0793441464       -1.3453042305        0.8210078328
 P          4.4716266659       -0.2544777145        0.3898737337
 O          5.7349662395       -0.6222474321        1.0578252192
 C          3.9110323277        1.4317442177        0.7999995382
 C          3.0968266414        2.1820016971       -0.0393669914
 C          2.6865007102        3.4441775932        0.3519191966
 C          3.0882890023        3.9596227408        1.5744054164
 C          3.9097465219        3.2165045134        2.4072066954
 C          4.3193211450        1.9526529197        2.0204252639
 C          4.5885857255       -0.3012195790       -1.4283149529
 C          5.8361140856       -0.0460861901       -1.9829680402
 C          5.9985887022       -0.0494720099       -3.3566618692
 C          4.9129125752       -0.3097708138       -4.1781936237
 C          3.6687653092       -0.5720402212       -3.6257730939
 C          3.5021228988       -0.5677449059       -2.2521943383
 C          1.7554586482       -0.8993864908        0.7466176735
 C          0.7204487456       -1.8342495327        1.0574705329
 C         -0.6666625535       -1.7454784761        1.0855839205
 C         -1.5989861015       -0.7070031797        0.8147116050
 H         -4.1513500554        2.5743789122        2.2175386127
 H         -3.0269007746        4.7768668991        1.9738006458
 H         -1.6667483712        5.2367314474       -0.0335000184
 H         -1.4398096704        3.5225284130       -1.7925543040
 H         -2.5662349277        1.3402741192       -1.5433697475
 H         -6.8441560988        0.5624968133       -0.4030399900
 H         -7.9166832089        0.0280486109       -2.5794043583
 H         -6.6014709605       -1.0851971281       -4.3467081254
 H         -4.2376090442       -1.6628516930       -3.9505843075
 H         -3.1804663148       -1.1280507099       -1.7829829696
 H         -4.4760143099       -2.4151274181        1.4130212185
 H         -2.8880546289       -4.2803093250        1.9256745480
 H         -0.1400073354       -4.8190591065        2.0037169888
 H          2.6406385819       -4.5892208416        1.8196071179
 H          4.4366950855       -2.9258004931        1.2446717423
 H          2.7972030711        1.7819613390       -0.9976535745
 H          2.0533624381        4.0288046653       -0.2992996800
 H          2.7655369777        4.9453030625        1.8757992608
 H          4.2297330922        3.6203954806        3.3566828837
 H          4.9653164041        1.3553521496        2.6494336908
 H          6.6693884788        0.1437016224       -1.3200893711
 H          6.9695800902        0.1501169298       -3.7858894985
 H          5.0379246278       -0.3133706104       -5.2510384280
 H          2.8259608550       -0.7821614137       -4.2681737067
 H          2.5363267684       -0.7808267206       -1.8155250275
 H          1.5163727239        0.1202469661        0.4958319668
 H         -1.2512640030        0.2723842675        0.5281128465
