  92
 
 C          5.4836112121        4.5999880778       -3.5827977950
 C          6.2912125647        4.0263614362       -2.6146021410
 C          5.7441177322        3.5309872163       -1.4473891988
 C          4.3678658987        3.6080020748       -1.2255745929
 N          3.7971484918        3.1086537665       -0.0556079484
 C          4.5076972135        3.0770633426        1.1487792737
 C          5.3596197846        4.1218172704        1.5058367557
 C          6.0644193726        4.0673854938        2.6925317855
 C          5.9279762006        2.9811328411        3.5416406779
 C          5.0735343142        1.9466041700        3.1965542267
 C          4.3667008831        1.9893373713        2.0114667764
 C          2.5022214061        2.5670988368       -0.0809309097
 C          1.5934124896        2.8825181075        0.9275327080
 C          0.3359252729        2.3142060886        0.9358297527
 C         -0.0347255911        1.3962440482       -0.0426731241
 C         -1.3303564981        0.6982849484        0.0162673115
 C         -2.5147208580        1.4163680497        0.0455751256
 C         -3.7546061015        0.7838718661        0.0370466572
 N         -4.9039766656        1.4509256072        0.0643661181
 C         -6.0802151474        0.8457141905        0.0419387061
 C         -6.1190397655       -0.6015056967       -0.0133886888
 N         -4.9773235360       -1.2688219232       -0.0401920622
 C         -3.7930604299       -0.6643770125       -0.0156710558
 C         -2.5896794118       -1.3623816693       -0.0243893239
 C         -1.3670068748       -0.7091051476        0.0069997849
 C         -0.1091410107       -1.4655987697        0.0707056931
 C          0.8497003373       -1.1349122897        1.0291137222
 C          2.0786920288       -1.7521564828        1.0396140231
 C          2.3903797224       -2.7208683954        0.0845222497
 N          3.6821312624       -3.2578333823        0.0456806475
 C          3.8877911452       -4.6116129470       -0.2186269010
 C          2.9625234728       -5.5624941067        0.2145487265
 C          3.1641041500       -6.9019759331       -0.0532908778
 C          4.2889054765       -7.3185435266       -0.7466936329
 C          5.2123172272       -6.3791359270       -1.1760286531
 C          5.0165367711       -5.0362128935       -0.9209861565
 C          4.7611752350       -2.3887372790        0.2520351173
 C          4.7223483150       -1.0951260349       -0.2698648862
 C          5.7718882693       -0.2251510789       -0.0537671394
 C          6.8731920105       -0.6257077770        0.6850055111
 C          6.9195855852       -1.9108989399        1.2001583811
 C          5.8749156260       -2.7902399681        0.9881774485
 C          1.4114275390       -3.1072362672       -0.8296159244
 C          0.1767065689       -2.4893671902       -0.8283969161
 C         -7.3762190312       -1.2179842959       -0.0342949766
 S         -7.6335896608       -2.9380523142       -0.0980872697
 C         -9.3451234774       -2.6962085586       -0.0851901431
 C         -9.7061324951       -1.3932298837       -0.0354315564
 C         -8.5899573569       -0.5167992211       -0.0050299756
 C         -8.5520045366        0.8937829550        0.0486586896
 C         -9.6192660009        1.8288323988        0.0869231831
 C         -9.1884964723        3.1105133374        0.1350905255
 S         -7.4663648892        3.2601618947        0.1368608794
 C         -7.3021646989        1.5287997036        0.0703670482
 C          0.8646816571        1.1141010773       -1.0697769140
 C          2.1131971331        1.6968645919       -1.0978348588
 C          3.5601470623        4.1907192535       -2.2042264125
 C          4.1167449423        4.6772080186       -3.3701982672
 H          5.9156495030        4.9841032776       -4.4941368704
 H          7.3575600555        3.9560215290       -2.7718428806
 H          6.3827134704        3.0800798724       -0.7016971129
 H          5.4593386547        4.9746281880        0.8503378963
 H          6.7198893566        4.8833647229        2.9593883070
 H          6.4822061092        2.9426639279        4.4670441173
 H          4.9638650289        1.0940974483        3.8504771054
 H          3.7092801231        1.1774619866        1.7372722980
 H          1.8872513552        3.5698636229        1.7075506376
 H         -0.3595803817        2.5581129251        1.7258541340
 H         -2.4974989194        2.4955591023        0.0503715219
 H         -2.6312993054       -2.4408241011       -0.0264031204
 H          0.6208615562       -0.3903280033        1.7763261290
 H          2.8175909713       -1.4842132628        1.7808512031
 H          2.0913502437       -5.2421145808        0.7668790158
 H          2.4410330744       -7.6272068163        0.2898243288
 H          4.4444351256       -8.3667747948       -0.9512485075
 H          6.0890747516       -6.6936484621       -1.7228646510
 H          5.7314463991       -4.3056228078       -1.2700302487
 H          3.8633426330       -0.7807335700       -0.8446013932
 H          5.7319298356        0.7680477366       -0.4738603231
 H          7.6890525266        0.0593465052        0.8583612500
 H          7.7732775016       -2.2303460078        1.7796029575
 H          5.9088957188       -3.7890903900        1.3981844308
 H          1.6361709524       -3.8724663574       -1.5582243873
 H         -0.5618909537       -2.7702510095       -1.5650350392
 H         -9.9858055981       -3.5556001858       -0.1160021656
 H        -10.7269352254       -1.0566162259       -0.0204007663
 H        -10.6567583441        1.5475647024        0.0784881049
 H         -9.7818747059        4.0030404812        0.1707484125
 H          0.5794871653        0.4222733775       -1.8485892741
 H          2.8045535514        1.4702937960       -1.8967326078
 H          2.4953860822        4.2635991382       -2.0383985994
 H          3.4781659661        5.1281566620       -4.1154421985
