  72
 
 C         -7.2907505810        3.3845182647       -0.8419278559
 C         -7.7556113304        2.1359958442       -1.2215666084
 C         -7.0283667388        0.9990107961       -0.9283661805
 C         -5.8204228905        1.0958016407       -0.2378331616
 N         -5.0817221879       -0.0537428782        0.0640768610
 C         -5.7411815376       -1.2362658350        0.4177345651
 C         -6.8979253763       -1.1953578967        1.1959220229
 C         -7.5471941354       -2.3648686045        1.5398267857
 C         -7.0535126238       -3.5906682110        1.1242244345
 C         -5.9028575840       -3.6372921685        0.3543507402
 C         -5.2512619138       -2.4728556156       -0.0020816295
 C         -3.6846916169       -0.0201712023        0.0141998730
 C         -3.0269407833        0.7338546262       -0.9580293181
 C         -1.6485221984        0.7733095439       -0.9973179502
 C         -0.8866083187        0.0513810822       -0.0827216547
 C          0.5890289514        0.0924673875       -0.1310548883
 C          1.2651483218        1.2722553245        0.2119238190
 C          0.5701143519        2.4344440368        0.6382234047
 C          1.2364739482        3.5689524391        0.9850566806
 C          2.6442672254        3.6077349050        0.9415126534
 C          3.3492027561        2.5109518456        0.5521738954
 C          2.6933051963        1.3119406900        0.1671696291
 C          3.4114634359        0.1722410772       -0.2216908285
 C          4.8876415688        0.2208125074       -0.2759540533
 C          5.5225989265        1.0006202586       -1.2665575207
 C          6.8840823216        1.0592947768       -1.3414945576
 C          7.6913571226        0.3466427937       -0.4296617883
 C          9.0997396339        0.3873057468       -0.4793654621
 C          9.8506587346       -0.3167516360        0.4197827380
 C          9.2273605308       -1.0934861300        1.4093153253
 C          7.8642611851       -1.1534153658        1.4838132190
 C          7.0606810935       -0.4384830658        0.5708594829
 C          5.6532804111       -0.4821599981        0.6205646185
 C          2.7361775212       -1.0075565467       -0.5653662787
 C          3.4311867298       -2.1695452969       -0.9929162987
 C          2.7646731142       -3.3045886699       -1.3376047069
 C          1.3570036871       -3.3444523557       -1.2905618134
 C          0.6524481761       -2.2478611700       -0.9003130768
 C          1.3077206328       -1.0477244105       -0.5181917402
 C         -1.5456141202       -0.7081432486        0.8800749812
 C         -2.9236757840       -0.7393420375        0.9361696542
 C         -5.3597092610        2.3549391572        0.1466156727
 C         -6.0898616716        3.4867277942       -0.1590699758
 H         -7.8601261207        4.2710718457       -1.0763504565
 H         -8.6884312881        2.0466451696       -1.7588068023
 H         -7.3883339473        0.0275936453       -1.2345247474
 H         -7.2794730681       -0.2414819723        1.5298480331
 H         -8.4408368119       -2.3187440529        2.1448369817
 H         -7.5617533715       -4.5026759447        1.3981830381
 H         -5.5136401928       -4.5880867636        0.0206906721
 H         -4.3603272139       -2.5116961402       -0.6117592300
 H         -3.6056646350        1.2865964370       -1.6835389489
 H         -1.1496910563        1.3575652757       -1.7571651381
 H         -0.5079016289        2.3990019764        0.6905445019
 H          0.6926868407        4.4451079888        1.3070256101
 H          3.1582524795        4.5126976688        1.2309677001
 H          4.4288611454        2.5355581759        0.5386443481
 H          4.9080091333        1.5448238678       -1.9695307909
 H          7.3649018403        1.6551776573       -2.1046235855
 H          9.5746031876        0.9866998797       -1.2434510504
 H         10.9295040499       -0.2812223517        0.3761250082
 H          9.8366206920       -1.6435986899        2.1117297900
 H          7.3794051997       -1.7502529986        2.2435016030
 H          5.1751253257       -1.0778145578        1.3861334736
 H          4.5091557958       -2.1346539943       -1.0476157472
 H          3.3086969889       -4.1802143763       -1.6604867841
 H          0.8432527144       -4.2502186042       -1.5780777704
 H         -0.4270153733       -2.2722426887       -0.8830797865
 H         -0.9661978412       -1.2647700948        1.6025614620
 H         -3.4218425017       -1.3197360017        1.6989159962
 H         -4.4291172502        2.4369652222        0.6890603460
 H         -5.7221670154        4.4554342261        0.1462965661
