85

C      0.150563    4.409587    1.053316
C     -0.867164    4.039642   -0.031356
C     -2.121295    4.907914    0.135362
C     -1.114057    2.532590   -0.052144
C     -2.238428    1.936180    0.364227
C     -2.479502    0.493499    0.334662
C     -3.750997    0.143054    1.138874
C     -5.036674    0.273357    0.313816
C     -3.742262   -1.164401    1.938215
C     -1.647671   -0.324981   -0.373712
C     -2.130527   -1.707831   -0.680460
C     -3.123946   -1.892339   -1.657907
C     -3.617922   -3.164608   -1.965148
C     -3.138584   -4.278949   -1.284140
C     -2.179628   -4.116995   -0.288196
C     -1.690892   -2.841510    0.014835
C     -0.315312    0.213726   -1.014853
C     -0.285787    0.183559   -2.608423
C     -1.351806    1.094270   -3.246194
C     -0.332872   -1.179560   -3.320577
P      1.021305   -0.912865   -0.299676
C      2.630139   -0.566391   -1.091340
C      3.128358    0.887177   -1.144670
C      4.650897    1.016873   -1.263880
C      5.245504   -0.105367   -2.100089
C      4.974247   -1.475864   -1.481639
C      3.733500   -1.508348   -0.582830
C      1.093595   -0.781190    1.526482
C      1.557947   -2.119616    2.141310
C      1.257777   -2.184535    3.643162
C      1.360018   -0.828178    4.337899
C      2.326505    0.096007    3.613811
C      1.893815    0.364218    2.163816
C      0.016850    1.689963   -0.573371
H     -0.203806    4.116027    2.047937
H      0.331275    5.490434    1.064357
H      1.116483    3.922852    0.881538
H     -0.438740    4.313988   -1.004990
H     -2.872524    4.667173   -0.625369
H     -2.574848    4.783340    1.125051
H     -1.869196    5.968869    0.022580
H     -3.055709    2.547856    0.739325
H     -3.827352    0.905365    1.930561
H     -5.064844    1.215995   -0.241907
H     -5.912807    0.254130    0.969755
H     -5.154350   -0.543754   -0.401445
H     -4.502345   -1.121760    2.728438
H     -2.776194   -1.326016    2.427746
H     -3.991308   -2.033336    1.322411
H     -3.524817   -1.036473   -2.194020
H     -4.375764   -3.280237   -2.736659
H     -3.518860   -5.269236   -1.519812
H     -1.814305   -4.979485    0.263088
H     -0.981955   -2.745453    0.828561
H      0.680425    0.609705   -2.912102
H     -1.282929    1.057542   -4.339233
H     -2.365154    0.794186   -2.969794
H     -1.219611    2.140844   -2.959217
H      0.243250   -1.958412   -2.816417
H      0.095781   -1.075945   -4.325996
H     -1.351656   -1.539407   -3.472193
H      2.465761   -0.858302   -2.138659
H      2.820121    1.481080   -0.283312
H      2.676670    1.379676   -2.014987
H      5.098560    0.999482   -0.262439
H      4.901806    1.989803   -1.702088
H      4.813756   -0.069137   -3.108613
H      6.325592    0.037803   -2.219096
H      4.867026   -2.210807   -2.288961
H      5.841813   -1.795752   -0.892270
H      3.382235   -2.546460   -0.517220
H      4.030848   -1.217923    0.433177
H      0.052184   -0.651580    1.847645
H      1.094210   -2.988013    1.658048
H      2.638932   -2.243475    1.994678
H      0.251176   -2.587997    3.803954
H      1.951422   -2.895063    4.108298
H      0.368911   -0.358596    4.371945
H      1.673130   -0.969271    5.378776
H      3.326753   -0.356050    3.615459
H      2.416469    1.047147    4.151125
H      2.800772    0.595357    1.602323
H      1.282180    1.273401    2.167170
H      0.768191    1.712937    0.213105
H      0.487648    2.224862   -1.409433
