  85
 
 F         -1.4421010941        5.4263419899       -0.6476341232
 C         -2.2781828008        4.3835481914       -0.4853437697
 F         -3.4749248556        4.9202957163       -0.1674671806
 F         -2.4294042601        3.8323731739       -1.6988004569
 C         -1.7967507291        3.4188432066        0.5556127384
 C         -1.3447101136        3.9244796467        1.7738634565
 C         -0.9019088281        3.0353926000        2.7448409950
 C         -0.9108319723        1.6780559312        2.5128393898
 C         -1.3655660631        1.1695711285        1.2836850129
 N         -1.3926845897       -0.1953217722        1.0567113616
 C         -0.3442459963       -1.1260142069        1.2701053221
 C          1.0015684465       -0.8873825002        1.5851710492
 C          1.6444249498        0.3789119670        1.6278882991
 C          2.9857826802        0.4746678241        1.8784722895
 C          3.7753009520       -0.6663598080        2.0766395566
 O          5.1054355971       -0.4585732783        2.2872968425
 C          6.0100682346       -1.4641265394        1.8755665798
 C          5.8984081957       -1.7219476690        0.3702352822
 C          6.2029441564       -0.4511105172       -0.4255620880
 C          5.4495226478       -0.4005816342       -1.7608598991
 N          4.0530734242       -0.0967612173       -1.5925268171
 C          2.9926610797       -0.9662324081       -1.7040891011
 C          2.9794151945       -2.3406374391       -1.9009752851
 C          1.7537482172       -2.9709943746       -2.0017261215
 C          0.5590076169       -2.2608148061       -1.9241965154
 C          0.5620960126       -0.8957473640       -1.7194512999
 C          1.7800226305       -0.2429227207       -1.5968342281
 C          2.1426802922        1.1289983810       -1.3891879556
 C          1.4097084211        2.2942223716       -1.2105223064
 C          2.0874894062        3.4812290579       -1.0196702495
 C          3.4803029271        3.5151373464       -1.0219789253
 C          4.2318900707        2.3706401910       -1.2113117836
 C          3.5561684255        1.1713099020       -1.3906111427
 C          3.1586574754       -1.9279274573        2.0376463600
 C          1.8182181255       -2.0330141279        1.8022440711
 N         -0.7787650751       -2.3691821082        0.9841537014
 C         -2.0029857366       -2.2868811956        0.5085081477
 C         -2.7421034859       -3.4842635373        0.1739749577
 C         -2.0251625558       -4.6184020629       -0.2246257361
 C         -2.6832783231       -5.7873660835       -0.5429023221
 C         -4.0666618448       -5.8547980489       -0.4544240881
 C         -4.7832551251       -4.7479570926       -0.0269675744
 C         -4.1330481146       -3.5710147322        0.2882166560
 C         -2.4418568460       -0.9072715759        0.4960896511
 C         -3.6867063440       -0.3635441903        0.0700688887
 C         -4.3166865920       -0.8829328416       -1.0820599839
 C         -5.5085842363       -0.3610827212       -1.5270770838
 C         -6.1212663771        0.6835568742       -0.8437941289
 C         -5.5247566127        1.1951661055        0.3028674938
 C         -4.3276209052        0.6909331170        0.7555075782
 C         -1.8178286390        2.0622436701        0.3024892661
 H         -1.3421750111        4.9877019435        1.9500825296
 H         -0.5573059310        3.4131276579        3.6949972580
 H         -0.5804722701        0.9874780497        3.2739575857
 H          1.0981330988        1.2792263720        1.4102898266
 H          3.4697260772        1.4390789079        1.8910116286
 H          5.8572414170       -2.3924244997        2.4395093240
 H          6.9963733874       -1.0655971031        2.1268029624
 H          6.5773704909       -2.5287346400        0.0912879838
 H          4.8769887394       -2.0430778303        0.1569920235
 H          5.9018591515        0.4146699153        0.1672268250
 H          7.2750572641       -0.3749693000       -0.6138294237
 H          5.5405308967       -1.3567241690       -2.2813875631
 H          5.8928381085        0.3741944952       -2.3962004893
 H          3.8931675509       -2.9114737398       -1.9823123852
 H          1.7230984764       -4.0396841562       -2.1558172912
 H         -0.3775656209       -2.7871990217       -2.0290671788
 H         -0.3619093375       -0.3390144142       -1.6714726637
 H          0.3309137754        2.2686191117       -1.2215320578
 H          1.5343531921        4.3968731861       -0.8726139797
 H          3.9846713770        4.4589779561       -0.8754822947
 H          5.3105283334        2.4193161193       -1.2176223996
 H          3.7365110840       -2.8239889915        2.2061139335
 H          1.3381161873       -2.9972379790        1.7741458134
 H         -0.9500188551       -4.5486873733       -0.2826894132
 H         -2.1210887592       -6.6528419608       -0.8621420622
 H         -4.5824313350       -6.7694893345       -0.7064660117
 H         -5.8578793971       -4.8048460407        0.0669401994
 H         -4.6980752800       -2.7265540611        0.6514168802
 H         -3.8287371280       -1.6720712347       -1.6344579041
 H         -5.9651792409       -0.7598642170       -2.4210892527
 H         -7.0535690768        1.0935900668       -1.1998988591
 H         -6.0047473344        1.9949928318        0.8473000588
 H         -3.8985083182        1.0701764509        1.6705721428
 H         -2.1636567917        1.6913321697       -0.6499279557
