  47
 
 C          2.0566249471       -2.7632582447       -0.3678434718
 C          1.1881092511       -1.7531219275        0.4221697887
 C          1.3239192670       -1.9375547876        1.9529463523
 C          1.5581272775       -0.3350597717        0.0394811636
 C          0.5300364264        0.5895111333       -0.2754829682
 C          0.8368115419        1.8182226322       -0.8946468047
 C          2.1277311240        2.1907595347       -1.0918141389
 C          3.1919013832        1.3964803870       -0.5856006318
 C          4.5099830983        1.8476877887       -0.6828428518
 C          5.5613669900        1.1027053973       -0.1843233330
 C          5.2935368141       -0.1102693206        0.4368401035
 C          4.0046368316       -0.5878357455        0.5300552058
 C          2.9011799365        0.1282745868        0.0029348631
 N         -0.7851094747        0.2830441112       -0.0203039801
 C         -1.7268209908        1.2770567546        0.2343477038
 C         -1.3528787973        2.4862251539        0.8186790859
 C         -2.2834430995        3.4897137661        1.0192844143
 C         -3.6088007991        3.2985820152        0.6337338546
 C         -4.0093587752        2.0842477183        0.1264355899
 C         -3.0910331766        1.0382153333       -0.0501225242
 C         -3.5486290022       -0.2780672138       -0.4424594627
 O         -4.7233140088       -0.5049508097       -0.8012869128
 C         -2.5650350535       -1.3320374692       -0.2813488766
 C         -2.9576621500       -2.6706200075       -0.3697657208
 C         -2.0383063472       -3.6792026520       -0.1824601032
 C         -0.7070503100       -3.3782834590        0.0698551426
 C         -0.2659036962       -2.0578926042        0.1172033945
 C         -1.2015898861       -1.0386866296       -0.0427429975
 H          1.5248212536       -3.0804674786       -1.2624567252
 H          2.2781513504       -3.6414681179        0.2329048864
 H          2.9930083536       -2.3236588068       -0.6919624489
 H          2.3286562856       -1.7272105339        2.3032542668
 H          0.6413269284       -1.2583183192        2.4614517058
 H          1.0590729601       -2.9554048472        2.2291355595
 H          0.0260000953        2.4344244663       -1.2527802296
 H          2.3635088467        3.1040553209       -1.6158145343
 H          4.6954273198        2.8027894747       -1.1525174257
 H          6.5750549949        1.4646810018       -0.2634782212
 H          6.1030345055       -0.6884487432        0.8580743156
 H          3.8558436964       -1.5205438259        1.0451099939
 H         -0.3303989427        2.6303173493        1.1360053261
 H         -1.9764932315        4.4179752290        1.4751345692
 H         -4.3253134340        4.0963488691        0.7588002715
 H         -5.0373313175        1.8927049746       -0.1391593698
 H         -3.9971450841       -2.8762389610       -0.5714978369
 H         -2.3522604693       -4.7113893394       -0.2243532046
 H         -0.0090419311       -4.1836728317        0.2288494645
