64

O      6.407603    0.419969   -2.824083
S      5.931978    1.032785   -1.596592
O      5.839038    2.477344   -1.483757
C      6.985200    0.446693   -0.289441
C      7.425210    1.327707    0.702094
C      8.251778    0.852950    1.720265
C      8.638523   -0.488562    1.739292
C      8.205969   -1.360631    0.738467
C      7.379262   -0.894990   -0.283429
C      4.311315    0.386516   -1.254421
C      3.784830   -0.636921   -2.042849
C      2.509333   -1.133718   -1.760000
C      1.744799   -0.615054   -0.699405
C      0.400202   -1.141117   -0.406602
C      0.191966   -2.528152   -0.215708
C     -1.075038   -3.056222    0.067513
C     -2.147089   -2.187483    0.161703
C     -1.958272   -0.802251   -0.025440
C     -0.702106   -0.275272   -0.308060
C     -3.291417   -0.066778    0.131346
C     -3.681925    0.750808   -1.101606
C     -3.866318    0.321666   -2.409668
C     -4.221437    1.269094   -3.370810
C     -4.386925    2.619084   -3.020595
C     -4.200612    3.046978   -1.702127
C     -3.847997    2.108638   -0.745663
C     -3.593664    2.263039    0.672599
C     -3.631172    3.392596    1.474058
C     -3.338188    3.256087    2.834868
C     -3.012954    2.003400    3.380361
C     -2.973929    0.863968    2.575552
C     -3.265203    1.004062    1.224629
C     -4.252048   -1.219714    0.429697
C     -5.619499   -1.175472    0.668288
C     -6.284260   -2.376512    0.919571
C     -5.585487   -3.594853    0.930019
C     -4.208279   -3.635010    0.689236
C     -3.545676   -2.444154    0.439443
C      2.295873    0.425962    0.069647
C      3.570117    0.929914   -0.203890
H      7.136687    2.376400    0.689044
H      8.600654    1.529292    2.497189
H      9.286515   -0.853795    2.532884
H      8.520090   -2.401650    0.753129
H      7.056516   -1.575309   -1.068196
H      4.347352   -1.048715   -2.877858
H      2.102264   -1.923616   -2.389430
H      1.036312   -3.213161   -0.276480
H     -1.199725   -4.124226    0.211287
H     -0.586379    0.795230   -0.459919
H     -3.737742   -0.721895   -2.680433
H     -4.371008    0.959583   -4.402664
H     -4.663007    3.340567   -3.786250
H     -4.331057    4.092755   -1.445291
H     -3.881311    4.365813    1.065374
H     -3.363094    4.131013    3.480526
H     -2.790153    1.921102    4.441701
H     -2.723437   -0.104842    2.996968
H     -6.159199   -0.233253    0.659859
H     -7.355206   -2.369486    1.109220
H     -6.124205   -4.518753    1.127957
H     -3.680943   -4.582831    0.699978
H      1.729192    0.850552    0.897269
H      3.967385    1.742832    0.399637
