  78
 
 O         -6.0818612389        0.9199497704        2.4241289509
 P         -5.7269867623        0.6784698404        1.0129465712
 C         -6.7338394878       -0.6300913175        0.2401399445
 C         -8.0299137558       -0.7793650210        0.7161636208
 C         -8.8627681290       -1.7400060847        0.1709901724
 C         -8.3993386804       -2.5535591320       -0.8510556744
 C         -7.1042491752       -2.4091896785       -1.3232709370
 C         -6.2685250564       -1.4484497092       -0.7809208278
 C         -5.9354563027        2.1514425037       -0.0387810882
 C         -5.8641172728        3.3883264711        0.5880805744
 C         -6.0030407708        4.5493555347       -0.1515652245
 C         -6.2147047510        4.4736724581       -1.5191317676
 C         -6.2929061587        3.2391459414       -2.1450507588
 C         -6.1550706734        2.0757713677       -1.4084960600
 C         -3.9939075570        0.1535372121        0.8035392709
 C         -3.4057966266       -0.5041311673        1.8765586986
 C         -2.1012010281       -0.9485485661        1.7952411834
 C         -1.3719740395       -0.7441449258        0.6252815525
 N         -0.0495902185       -1.1993676077        0.5330168850
 C          0.3883278182       -2.4753516056        0.8444708587
 C         -0.3385197357       -3.5867677101        1.2470984863
 C          0.3528430766       -4.7630869667        1.4686049242
 C          1.7321244355       -4.8434387872        1.2862714732
 C          2.4571205907       -3.7478141650        0.8616762713
 C          1.7831341330       -2.5545857408        0.6331575401
 C          2.2008375670       -1.2564261428        0.1800510799
 C          3.4335281967       -0.7236645602       -0.1640192992
 C          3.4914395518        0.6067507127       -0.5467986942
 P          5.0474051435        1.4352328824       -0.9941370101
 O          4.8651799030        2.5257895751       -1.9722632306
 C          5.7774755627        2.0075163949        0.5756868623
 C          6.6101853660        3.1169396593        0.5155496388
 C          7.2146731838        3.5938226191        1.6650073859
 C          6.9863883481        2.9608804165        2.8767021525
 C          6.1505875856        1.8568498912        2.9392947916
 C          5.5441571168        1.3776585788        1.7913774050
 C          6.1612144229        0.1223206567       -1.5937559031
 C          6.2456887698       -0.0528154386       -2.9685651359
 C          7.0610932026       -1.0394148085       -3.4938986353
 C          7.7937775669       -1.8526585159       -2.6439189737
 C          7.7152463470       -1.6752598513       -1.2713834140
 C          6.9008165626       -0.6892083565       -0.7427967912
 C          2.3392617089        1.3974059524       -0.5753378093
 C          1.1035567683        0.8868549390       -0.2362657821
 C          1.0351574827       -0.4524374954        0.1292843775
 C         -1.9610324338       -0.0820763163       -0.4504685011
 C         -3.2635145294        0.3690350774       -0.3585762156
 H         -8.3639288797       -0.1398763227        1.5219660207
 H         -9.8705535642       -1.8546246146        0.5424673806
 H         -9.0474414801       -3.3050652208       -1.2773646711
 H         -6.7432570996       -3.0483509166       -2.1158925549
 H         -5.2553918171       -1.3395486873       -1.1409464484
 H         -5.7086908603        3.4199973248        1.6578566586
 H         -5.9482797580        5.5109428110        0.3375463660
 H         -6.3241885672        5.3787955436       -2.0981664739
 H         -6.4653636459        3.1833733526       -3.2100150456
 H         -6.2287185032        1.1111411612       -1.8903326073
 H         -3.9836676221       -0.6433244230        2.7795299354
 H         -1.6362524974       -1.4392691468        2.6370264568
 H         -1.4092068752       -3.5410842481        1.3754730540
 H         -0.1898473896       -5.6412031211        1.7861856352
 H          2.2354063145       -5.7805910120        1.4722969506
 H          3.5228980345       -3.8131270961        0.7030026090
 H          4.3256531195       -1.3314753529       -0.1386820016
 H          6.7646084266        3.5984707818       -0.4405794220
 H          7.8617785271        4.4574753767        1.6164000373
 H          7.4569405824        3.3316854233        3.7754354534
 H          5.9690371152        1.3688390486        3.8859462370
 H          4.8831955698        0.5234476393        1.8363765871
 H          5.6723608012        0.6017522212       -3.6108830853
 H          7.1260650070       -1.1733066576       -4.5638302539
 H          8.4314020699       -2.6231475264       -3.0518632172
 H          8.2924539630       -2.3057406858       -0.6106466549
 H          6.8450580562       -0.5406645873        0.3262861287
 H          2.4407225569        2.4301515730       -0.8789701179
 H          0.2252580003        1.5140271303       -0.2453284016
 H         -1.3973155429        0.0648915564       -1.3596683045
 H         -3.7136430686        0.8905368907       -1.1904881884
