  74
 
 C          0.4799225620       -3.3442414986       -0.2120863454
 O          1.2372282255       -2.1643995861       -0.0552206188
 C          0.5938631534       -0.9701427903        0.0242075477
 C         -0.7601878113       -0.8199229883       -0.0329382371
 C         -1.3929885566        0.4495617204        0.0516336334
 C         -2.7761353491        0.6395364776       -0.0139510562
 C         -3.7434060243       -0.3424958950       -0.1656012162
 C         -5.1411836750       -0.1325213189       -0.2393467174
 C         -5.7545851793        1.1394877608       -0.1657368813
 C         -7.1169496268        1.2807757670       -0.2413124820
 C         -7.9422374928        0.1612926693       -0.3910243580
 N         -9.3288908480        0.3195243741       -0.4759569140
 C         -9.9870377757        1.2960752098       -1.1730012959
 N        -11.2789630053        1.2067720745       -1.1291177626
 C        -11.5393484994        0.1095385343       -0.3430268126
 C        -12.7527661765       -0.4377554076        0.0578872428
 C        -12.7161230007       -1.5436904255        0.8815270006
 C        -11.5071616317       -2.0926430160        1.3138567209
 C        -10.2907935388       -1.5657649991        0.9265413437
 C        -10.3174431035       -0.4693250526        0.0777542827
 C         -7.3604103000       -1.1073005303       -0.4787145505
 C         -5.9981663667       -1.2466676086       -0.4027110843
 C         -0.5247675710        1.5997436094        0.2107184519
 O         -1.1684579895        2.7934811268        0.2948204989
 C         -0.4117184625        3.9728421040        0.4577401123
 C          0.8293323072        1.4495860749        0.2670635857
 C          1.4624513638        0.1806924442        0.1763663063
 C          2.8466225344       -0.0074807904        0.2235307159
 C          3.8145464765        0.9762710241        0.3589662379
 C          5.2144660069        0.7703898916        0.3937713065
 C          5.8292187658       -0.5003771530        0.3135441156
 C          7.1941590501       -0.6375935565        0.3376766051
 C          8.0199507013        0.4862157421        0.4402811450
 N          9.4114569504        0.3509412135        0.4634770801
 C         10.2751580179        1.0297492577        1.2792396076
 N         11.5203876065        0.7037245257        1.1297490958
 C         11.5283324204       -0.2501119433        0.1398593305
 C         12.5924012724       -0.9315600999       -0.4398802225
 C         12.3059181219       -1.8290442819       -1.4474240847
 C         10.9975576497       -2.0417004401       -1.8864055802
 C          9.9260176391       -1.3768649008       -1.3236215118
 C         10.2018295239       -0.4912577332       -0.2927458465
 C          7.4369729328        1.7538019325        0.5406687154
 C          6.0727039105        1.8889953171        0.5167478458
 H         -0.0972923205       -3.3253263142       -1.1411866708
 H          1.2071372536       -4.1537579210       -0.2529294834
 H         -0.1927010482       -3.5011292873        0.6361880006
 H         -1.3935378201       -1.6822367761       -0.1474680782
 H         -3.1005897271        1.6661831488        0.0618992610
 H         -3.4292770761       -1.3741517417       -0.2383641037
 H         -5.1455151529        2.0202861016       -0.0409186897
 H         -7.5656255208        2.2609587332       -0.1676653751
 H         -9.4597214735        2.0486783509       -1.7275914835
 H        -13.6830987870        0.0023399457       -0.2650851372
 H        -13.6416357592       -1.9929293127        1.2105552032
 H        -11.5247989486       -2.9492291775        1.9714621605
 H         -9.3624289743       -1.9848741822        1.2834520589
 H         -7.9896744207       -1.9711217372       -0.6315992056
 H         -5.5618137060       -2.2321528556       -0.4788957671
 H          0.1644177360        3.9500390980        1.3874154791
 H         -1.1392314579        4.7819501763        0.5013431185
 H          0.2618352282        4.1337125011       -0.3890566443
 H          1.4624860083        2.3117484684        0.3838376446
 H          3.1715763666       -1.0333786169        0.1400220910
 H          3.4995648684        2.0068228211        0.4427082008
 H          5.2181475746       -1.3857835207        0.2418576816
 H          7.6411417809       -1.6197909970        0.3004560581
 H          9.9282811710        1.7481373640        1.9974012120
 H         13.6027059875       -0.7490363773       -0.1090610084
 H         13.1102656294       -2.3749121844       -1.9182722714
 H         10.8205637815       -2.7410077941       -2.6901685308
 H          8.9206966788       -1.5337321301       -1.6834326701
 H          8.0710886875        2.6251263838        0.6177462929
 H          5.6366039648        2.8751890112        0.5839310499
