  100
 
 C         -6.3344881660        4.0896850004        2.9281146046
 C         -5.4913423778        3.9854686887        1.6939056831
 C         -5.0424447191        5.1315010703        1.0453158232
 C         -4.2679700836        5.0304853877       -0.0935086001
 C         -3.9053493473        3.8027303803       -0.6324952586
 C         -3.0967296445        3.7574139386       -1.8929642688
 C         -4.3384865423        2.6466618460        0.0294337786
 N         -4.0144080514        1.3622130523       -0.4384837502
 C         -2.7449425339        1.0256067447       -0.9029305090
 C         -2.6510692828        0.2573910749       -2.0696974469
 C         -1.4462175780       -0.1306944846       -2.5799138088
 C         -0.2318732545        0.2160051198       -1.9162490261
 C          1.0094569843       -0.1518727352       -2.4269419669
 C          2.1824197919        0.1512486180       -1.7517755266
 C          2.1513025907        0.8218740840       -0.5290387830
 C          3.3396743185        1.1065432533        0.2335748172
 N          4.5591160437        0.5181341672       -0.0871861868
 C          5.7198530373        1.3120292319       -0.0217081271
 C          5.7069916514        2.5343366390       -0.6925660242
 C          6.8035127264        3.3764383909       -0.6790606440
 C          6.7835999686        4.6899076315       -1.3993364368
 C          7.9340063891        2.9740058406        0.0255940471
 C          7.9438728227        1.7745543263        0.7105002880
 C          6.8452125090        0.9246790128        0.7149935346
 C          6.8750104391       -0.3375866802        1.5213694415
 C          4.6442346083       -0.8266294987       -0.4085537777
 C          5.6601739591       -1.3251813090       -1.2280825764
 C          5.7454883623       -2.6722535129       -1.5525759025
 C          4.8219812853       -3.5888714998       -1.0883033972
 C          3.7960289515       -3.1221026997       -0.2719067481
 C          3.7165102408       -1.7615173908        0.0652008572
 O          2.6630851532       -1.5064954882        0.8915003667
 C          2.0393204437       -2.6951656266        1.0914167287
 C          0.9145505933       -2.9126040532        1.8670658869
 C          0.4463022280       -4.2118485879        1.9510147531
 C          1.0753308010       -5.2563741408        1.2765276770
 C          2.1944696581       -5.0365612147        0.4981205774
 C          2.6867634033       -3.7412664027        0.4043181605
 C          3.2735969128        1.9706479738        1.3310701583
 C          2.0763049517        2.4493316230        1.7832671144
 C          0.8537506170        2.0767637283        1.1459633269
 C         -0.3847280286        2.4570530041        1.6521274283
 C         -1.5642998693        2.1056627576        1.0103340696
 C         -1.5491120897        1.3989711381       -0.1929035020
 C         -0.2958938507        0.9718685025       -0.7166632886
 C          0.9040284140        1.2872708933       -0.0324610631
 C         -5.0015051317        0.3820198158       -0.4585770598
 C         -6.3489870369        0.6816000340       -0.6777614983
 C         -7.3273415683       -0.3024022988       -0.6849068016
 C         -7.0175860513       -1.6349225754       -0.4886544005
 C         -5.6824396347       -1.9682001263       -0.2822339721
 C         -4.6939289807       -0.9696318583       -0.2648641139
 O         -3.4552024912       -1.4899710427       -0.0410738639
 C         -3.6205372061       -2.8329363557        0.0750822815
 C         -2.6211538155       -3.7662796805        0.2811786289
 C         -3.0058336847       -5.0920680056        0.3685430077
 C         -4.3412246667       -5.4717965930        0.2522572462
 C         -5.3363257462       -4.5384400022        0.0376041929
 C         -4.9744208422       -3.2006008129       -0.0554107666
 C         -5.1287348842        2.7565084597        1.1762436031
 H         -7.2218188959        4.6898093545        2.7315661230
 H         -6.6468139508        3.1066608550        3.2710073712
 H         -5.7757830072        4.5755882840        3.7274812874
 H         -5.3073271388        6.1039892032        1.4333078008
 H         -3.9410348003        5.9316939545       -0.5922998813
 H         -2.0451247521        3.5730691259       -1.6722817802
 H         -3.4427459913        2.9659288160       -2.5544415723
 H         -3.1716029770        4.7080196130       -2.4165888811
 H         -3.5651290506       -0.0029051013       -2.5877710453
 H         -1.3925498241       -0.6944496967       -3.4988880751
 H          1.0564383098       -0.6970167063       -3.3588554631
 H          3.1253665933       -0.1441432186       -2.1872509828
 H          4.8137811024        2.8118794132       -1.2345702588
 H          7.6407042532        4.7728502488       -2.0659005611
 H          6.8378967918        5.5107777384       -0.6846498838
 H          5.8731952299        4.8002254622       -1.9825311912
 H          8.8052955876        3.6120792851        0.0460117296
 H          8.8226497770        1.4910765075        1.2721908639
 H          7.1546303303       -1.1907039217        0.9016218491
 H          7.6017840987       -0.2491648712        2.3259366749
 H          5.8978944799       -0.5474496598        1.9526273578
 H          6.3878183865       -0.6315379961       -1.6229910187
 H          6.5520445513       -3.0020350670       -2.1904433616
 H          4.8886051265       -4.6335531443       -1.3460955290
 H          0.4302636733       -2.0956849459        2.3777622719
 H         -0.4262660793       -4.4209308055        2.5518870996
 H          0.6780642146       -6.2564385147        1.3683955228
 H          2.6795964002       -5.8472237333       -0.0237841543
 H          4.1895638607        2.2138544629        1.8522002064
 H          2.0315801893        3.0809117932        2.6575078834
 H         -0.4283611590        3.0378662466        2.5623915328
 H         -2.4998049042        2.4011263818        1.4565151189
 H         -6.6269887817        1.7110135290       -0.8464744825
 H         -8.3529931132       -0.0122423501       -0.8570622082
 H         -7.7804104459       -2.3967061928       -0.4974895615
 H         -1.5894816424       -3.4640236158        0.3636584263
 H         -2.2515585001       -5.8480325524        0.5267698827
 H         -4.5995457524       -6.5176717337        0.3277359554
 H         -6.3694241251       -4.8357619054       -0.0583784332
 H         -5.4486004751        1.8495778073        1.6704479506
