  128
 
 N         -7.8758190790        6.0548271111       -1.0958965760
 C         -7.2720239067        5.0859854345       -0.9843212686
 C         -6.5355430829        3.8906779424       -0.8319779168
 C         -6.6795413712        3.1484822653        0.3214211653
 C         -5.9569459108        1.9675226493        0.4915444502
 C         -5.0950588080        1.5283940557       -0.4869666200
 N         -4.4127688100        0.3155631931       -0.3031362063
 C         -5.0227316077       -0.9189596054       -0.1746653831
 C         -6.4680173232       -1.0816531166       -0.2287178153
 C         -7.1946746196       -0.4172296314       -1.2163643538
 C         -8.5668880183       -0.5142833046       -1.2836490956
 C         -9.2736821581       -1.2844301375       -0.3584567238
 C        -10.6937383571       -1.3929673558       -0.3956492899
 C        -11.3627655126       -2.1538651353        0.5009997973
 C        -10.6703781843       -2.8760352694        1.5166221023
 C        -11.3411117715       -3.6668763435        2.4510034406
 C        -10.6423871628       -4.3560921611        3.4252077110
 C         -9.2638456374       -4.2738048736        3.4917677331
 C         -8.5517030133       -3.4942481858        2.5786709872
 C         -7.1320603116       -3.3820959266        2.6176561749
 C         -6.4584722545       -2.6185881316        1.7260295969
 C         -7.1404088049       -1.8969428364        0.7030044125
 C         -8.5541520686       -1.9876870547        0.6393489497
 C         -9.2572930503       -2.7848019970        1.5764129970
 N         -4.1490366179       -1.8804790904       -0.0338197693
 C         -2.9244412374       -1.2906540793       -0.0638605852
 C         -1.6499384986       -1.9148840145        0.0076287695
 C         -1.5239912611       -3.3042410008        0.1135036791
 C         -0.2859925852       -3.8901554551        0.1367994840
 C          0.8669242499       -3.0976465404        0.0430302238
 C          2.1961219997       -3.7235279729        0.0398045262
 C          2.4843591375       -4.7886592218        0.8912037541
 C          3.7312425061       -5.3796679733        0.8916013400
 C          4.7202727653       -4.9277567070        0.0219232289
 N          5.9824829654       -5.5345713252        0.0095060185
 C          6.2248893882       -6.8910652154       -0.0806166858
 C          5.3298545681       -7.9415810717       -0.2245861616
 C          5.8454124023       -9.2198049581       -0.3206033334
 C          7.2179638570       -9.4557581943       -0.2839089132
 C          8.1143037699       -8.4126295036       -0.1657373414
 C          7.6202631167       -7.1185542087       -0.0678275755
 C          8.2428782718       -5.8290835830        0.0402512539
 C          9.5646101350       -5.4099206565        0.1149604891
 C          9.8245795956       -4.0597096931        0.2369118613
 C          8.7859981449       -3.1333911902        0.3002960263
 C          7.4632066081       -3.5260205852        0.2286441046
 C          7.1960156380       -4.8795879996        0.0810241375
 C          4.4403518934       -3.8684185077       -0.8370520750
 C          3.1962850271       -3.2716983643       -0.8194016885
 C          0.7408767258       -1.7227959921       -0.0513627233
 C         -0.5062067336       -1.0864081329       -0.0618387711
 C         -0.6517297985        0.3590855084       -0.1200507898
 C          0.4576764970        1.2104236459       -0.0847706975
 C          0.3429262408        2.5888620067       -0.0989711150
 C          1.5357538998        3.4441910874       -0.0476302884
 C          1.6133396704        4.6029307400       -0.8181918447
 C          2.7225794747        5.4216280190       -0.7592933727
 C          3.7881879436        5.0966297365        0.0758240600
 N          4.9108440382        5.9306311634        0.1486827773
 C          5.6318309581        6.4150939397       -0.9248462546
 C          5.4743583981        6.1653336242       -2.2806258806
 C          6.3623693503        6.7634090653       -3.1540339860
 C          7.3909213322        7.5846552224       -2.6974647427
 C          7.5674217103        7.8173005196       -1.3482621751
 C          6.6874024684        7.2274048105       -0.4506069763
 C          6.5860399178        7.2333444310        0.9818796555
 C          7.3132511741        7.8550795086        1.9883416892
 C          6.9243394753        7.6654550286        3.2991993133
 C          5.8166104596        6.8802866734        3.6110901537
 C          5.0775670560        6.2513669920        2.6275871835
 C          5.4783955680        6.4182697921        1.3097053420
 C          3.7236814891        3.9367885900        0.8434142022
 C          2.6095687165        3.1249099119        0.7814457645
 C         -0.9349163755        3.1597078197       -0.1358394597
 C         -2.0468133734        2.3601354132       -0.1714267671
 C         -1.9377248854        0.9622090993       -0.1840396458
 C         -3.0570904654        0.0877387311       -0.2167020239
 C         -4.9362347758        2.2543972832       -1.7015166610
 C         -4.0994103675        1.8101552174       -2.7463230848
 C         -3.9733647183        2.5405503746       -3.8953638601
 C         -4.6746250045        3.7442494866       -4.0529221545
 C         -5.5052867237        4.1944283495       -3.0637231091
 C         -5.6613331488        3.4616735711       -1.8705657192
 H         -7.3506350740        3.4838262779        1.0977591693
 H         -6.0727688971        1.3914087260        1.3973986798
 H         -6.6720427319        0.1637807025       -1.9627056245
 H         -9.1059622828        0.0067541775       -2.0616482437
 H        -11.2238207458       -0.8481949499       -1.1640569767
 H        -12.4402295014       -2.2309775507        0.4656930349
 H        -12.4185438529       -3.7358546596        2.4051394919
 H        -11.1783591444       -4.9638731325        4.1397492545
 H         -8.7237798036       -4.8153726525        4.2551242601
 H         -6.5998735132       -3.9264145731        3.3848968618
 H         -5.3823180403       -2.5572442567        1.7591123816
 H         -2.4282611617       -3.8908960967        0.1625948296
 H         -0.1911689867       -4.9641288824        0.1963263835
 H          1.7304303304       -5.1376751676        1.5813388459
 H          3.9527331518       -6.1850751170        1.5759339052
 H          4.2653988775       -7.7678733179       -0.2730634587
 H          5.1688998702      -10.0546439285       -0.4305623575
 H          7.5810767825      -10.4699827128       -0.3591442058
 H          9.1786238433       -8.5933873386       -0.1540714369
 H         10.3685950617       -6.1296996900        0.0821455824
 H         10.8454898631       -3.7122876862        0.2936434869
 H          9.0197762303       -2.0846981990        0.4113885074
 H          6.6655130204       -2.8017228883        0.2972221174
 H          5.1972597885       -3.5308060285       -1.5293345654
 H          2.9849523418       -2.4643585514       -1.5053274328
 H          1.6472010795       -1.1406412389       -0.1032222582
 H          1.4505788920        0.7919249499       -0.0522208776
 H          0.7976322231        4.8593416580       -1.4782898233
 H          2.7641142469        6.3264523678       -1.3471464290
 H          4.6916862788        5.5160309341       -2.6434056613
 H          6.2588056009        6.5871300985       -4.2146713882
 H          8.0626117455        8.0358405793       -3.4125666444
 H          8.3740506271        8.4406272718       -0.9928429643
 H          8.1615036248        8.4769788385        1.7449974585
 H          7.4773894842        8.1380859082        4.0972285618
 H          5.5262875027        6.7634430459        4.6449004005
 H          4.2097004758        5.6602619628        2.8788407177
 H          4.5551476674        3.6736053318        1.4801345857
 H          2.5630337812        2.2391804646        1.3979423602
 H         -1.0440151597        4.2334908876       -0.1041241750
 H         -3.0238996470        2.8171184779       -0.1634182388
 H         -3.5591069050        0.8820888275       -2.6334865326
 H         -3.3314086367        2.1903476413       -4.6894500541
 H         -4.5597654072        4.3113752238       -4.9641731648
 H         -6.0563431087        5.1161715552       -3.1809404378
