  176
 
 C         -8.7504624145        0.2573427805        2.8111874624
 C         -9.6237167650       -0.3366920735        1.9805351305
 C        -10.8655712503       -0.8920436911        2.4257614119
 N        -11.2820071662       -0.9448947178        3.6739154471
 C        -12.5045817091       -1.5303095790        3.6333382928
 C        -13.3801324725       -1.8078398274        4.7214946110
 C        -13.0324032950       -1.4750618058        6.0354760751
 C        -13.8956641365       -1.7344337690        7.0709029511
 C        -15.1256412981       -2.3320483340        6.8018513706
 C        -15.4772827903       -2.6665628187        5.5146722922
 C        -14.6201893999       -2.4229932526        4.4299782852
 C        -14.9583849391       -2.7844240539        3.0632160413
 C        -16.1615101485       -3.4314208143        2.7455394960
 C        -16.4757548235       -3.7970213302        1.4574526149
 C        -15.5849253980       -3.5395832383        0.4194845025
 C        -14.3971347686       -2.9049068824        0.6870176110
 C        -14.0660071704       -2.5080502170        1.9909641215
 C        -12.8505253917       -1.8463021111        2.3173067049
 N        -11.7887178362       -1.4323221786        1.5525292612
 C        -11.6494971737       -1.4231725706        0.1470304376
 C        -12.3957348082       -0.5351832670       -0.6228169858
 C        -12.2194629110       -0.4844375362       -1.9890500265
 C        -11.2869181290       -1.3154217973       -2.6176746268
 N        -11.0924534783       -1.2515402181       -3.9937128198
 C         -9.8111730668       -1.4437973561       -4.5344511090
 C         -8.6868980106       -0.9257739038       -3.8925856394
 C         -7.4291019731       -1.1154349586       -4.4324022131
 C         -7.2734162487       -1.8119637161       -5.6201116419
 C         -8.3884702242       -2.3226397283       -6.2648850174
 C         -9.6495257663       -2.1464184325       -5.7274977047
 C        -12.1662373341       -0.9658780381       -4.8512602204
 C        -11.9838106028       -0.1352226127       -5.9559515863
 C        -13.0398829159        0.1329571821       -6.8060151226
 C        -14.2903939154       -0.4132593749       -6.5655484142
 C        -14.4772432894       -1.2364292032       -5.4667186852
 C        -13.4252336378       -1.5168211966       -4.6156098084
 C        -10.5460227846       -2.2069580078       -1.8364629397
 C        -10.7230008881       -2.2580530222       -0.4693933720
 C         -7.4831668895        0.8420468399        2.4279738882
 C         -6.8350158709        0.5296925807        1.2285378302
 C         -5.6306059224        1.1147335935        0.9007596232
 C         -5.0351143260        2.0520969577        1.7446690650
 C         -3.7703202481        2.7012625326        1.3764033035
 C         -3.6125198048        4.0784317360        1.5264618990
 C         -2.4372773236        4.7019361343        1.1641020723
 C         -1.3732727635        3.9600039350        0.6504147878
 N         -0.1825509436        4.5946718982        0.2730958678
 C         -0.2441614687        5.8342264778       -0.3766534486
 C         -1.2413294741        6.0808561126       -1.3207032445
 C         -1.3125541829        7.3060674064       -1.9551966919
 C         -0.3903644149        8.2997181667       -1.6682460968
 C          0.6045417668        8.0585979690       -0.7342991894
 C          0.6785419725        6.8396639146       -0.0878239813
 C          1.0519211517        4.0249317166        0.5919228665
 C          1.2238671918        3.3127708582        1.7802300625
 C          2.4568772172        2.7922144781        2.1117950660
 C          3.5591276912        2.9554858123        1.2724975002
 C          4.8838242645        2.4529900298        1.6532321488
 C          5.3336544362        2.5629608346        2.9699956898
 C          6.5951990037        2.1374455812        3.3236425331
 C          7.4623742525        1.5700049521        2.3823591631
 C          8.7813685463        1.1606624444        2.8073933783
 C          9.7137366442        0.5386048876        2.0644453130
 C         11.0028263268        0.1981796097        2.5847097543
 N         11.4553196406        0.5134097693        3.7810494093
 C         12.7199937458        0.0283963681        3.8393661757
 C         13.6479479460        0.1288512991        4.9148291228
 C         13.3136363262        0.7902880172        6.1017927258
 C         14.2276113990        0.8963295370        7.1206431837
 C         15.4956602574        0.3402408371        6.9619774199
 C         15.8347756972       -0.3152515439        5.8010779344
 C         14.9269769006       -0.4490958012        4.7387374114
 C         15.2535167671       -1.1501318033        3.5079615098
 C         16.4971708518       -1.7699305685        3.3178930507
 C         16.8040415954       -2.4526059448        2.1640649394
 C         15.8652338356       -2.5568851440        1.1418214489
 C         14.6363737159       -1.9618732574        1.2865627938
 C         14.3103386213       -1.2459588725        2.4478478938
 C         13.0537763484       -0.6094787894        2.6420772675
 N         11.9425868621       -0.4902437472        1.8449875517
 C         11.7497912792       -0.9146074025        0.5114734064
 C         12.3725290221       -0.2427325748       -0.5367897173
 C         12.1549948644       -0.6382107113       -1.8395648789
 C         11.3068546261       -1.7127795453       -2.1258649936
 N         11.0862806247       -2.1131064417       -3.4396247415
 C          9.8348245063       -2.6245690682       -3.8204672546
 C          9.7529537744       -3.7092364801       -4.6920996164
 C          8.5194159113       -4.2043956712       -5.0708295605
 C          7.3545359667       -3.6337568807       -4.5836718438
 C          7.4311289317       -2.5562174705       -3.7158631325
 C          8.6599657983       -2.0492630343       -3.3381848789
 C         12.1114903894       -2.0247594006       -4.3938200387
 C         13.4294520898       -2.3218981883       -4.0488933732
 C         14.4321629453       -2.2381448188       -4.9960533783
 C         14.1376686062       -1.8692753597       -6.2987743739
 C         12.8285819244       -1.5785381934       -6.6475940997
 C         11.8205964341       -1.6502469526       -5.7049366173
 C         10.6803247109       -2.3753842577       -1.0662757931
 C         10.8956929125       -1.9777642488        0.2367408769
 C          7.0000767399        1.4451645784        1.0673232044
 C          5.7419115223        1.8811926168        0.7122205065
 C          3.3731508277        3.6412924258        0.0717542863
 C          2.1445287270        4.1679933745       -0.2653592484
 C         -1.5194215566        2.5796871820        0.5121142929
 C         -2.7038929899        1.9649290383        0.8625374725
 C         -5.6749048187        2.3634823102        2.9442243353
 C         -6.8648863624        1.7577395906        3.2861072514
 H         -9.0245901992        0.3344667103        3.8548996081
 H         -9.4317000741       -0.4034345838        0.9190733624
 H        -12.0722168172       -1.0100849434        6.2001951112
 H        -13.6290984636       -1.4775792547        8.0857120197
 H        -15.8110391921       -2.5349302168        7.6123358481
 H        -16.4400614485       -3.1253724509        5.3547196120
 H        -16.8698220163       -3.6597610608        3.5254441115
 H        -17.4134226211       -4.2929826110        1.2529509561
 H        -15.8251327441       -3.8389422934       -0.5901815998
 H        -13.7005320520       -2.7133344755       -0.1138143738
 H        -13.1091471279        0.1168721932       -0.1402911862
 H        -12.7947128168        0.2128402210       -2.5789519739
 H         -8.8075316510       -0.3695532849       -2.9741964940
 H         -6.5660931220       -0.7068225904       -3.9272390201
 H         -6.2896449571       -1.9542540763       -6.0413073789
 H         -8.2758413842       -2.8694407290       -7.1896336783
 H        -10.5175676115       -2.5508150594       -6.2274028631
 H        -11.0113271911        0.2973249897       -6.1408413993
 H        -12.8863951494        0.7797058510       -7.6575223072
 H        -15.1136323955       -0.1994633380       -7.2304533024
 H        -15.4474325140       -1.6712250419       -5.2750301854
 H        -13.5708695562       -2.1681208503       -3.7660810665
 H         -9.8302626650       -2.8617901922       -2.3100240466
 H        -10.1500826174       -2.9513334251        0.1292172275
 H         -7.2726341126       -0.1931302166        0.5562523672
 H         -5.1483791998        0.8619048091       -0.0327592840
 H         -4.4290311960        4.6680154207        1.9172059161
 H         -2.3332346687        5.7714731531        1.2767847000
 H         -1.9572266708        5.3051718413       -1.5511784050
 H         -2.0895703971        7.4829651628       -2.6848247828
 H         -0.4471591811        9.2552521951       -2.1677536864
 H          1.3238396809        8.8297197005       -0.4989153743
 H          1.4483352506        6.6600228783        0.6486429217
 H          0.3849640214        3.1827900429        2.4484717174
 H          2.5669785731        2.2437264513        3.0358457474
 H          4.6945768785        3.0156163900        3.7142592483
 H          6.9298185976        2.2459672425        4.3457465329
 H          9.0406820945        1.3815046109        3.8346343385
 H          9.5350302577        0.2661112415        1.0341435643
 H         12.3231118425        1.2116567740        6.1822883514
 H         13.9714361110        1.4074220419        8.0372023300
 H         16.2208770536        0.4245638643        7.7587563818
 H         16.8281425314       -0.7277525108        5.7229023404
 H         17.2442254469       -1.7220053078        4.0935808804
 H         17.7738085292       -2.9159192088        2.0549859124
 H         16.1006808541       -3.1047167625        0.2411466230
 H         13.9024651539       -2.0506665688        0.5013285780
 H         13.0252170775        0.5906531084       -0.3214611565
 H         12.6356093647       -0.1086831245       -2.6481259576
 H         10.6606968364       -4.1590250920       -5.0671962494
 H          8.4685396500       -5.0469294720       -5.7449323980
 H          6.3929550326       -4.0254421290       -4.8793957996
 H          6.5278763547       -2.1013999382       -3.3361203195
 H          8.7180892710       -1.2023261173       -2.6699874585
 H         13.6603314392       -2.6231276757       -3.0375179814
 H         15.4490471323       -2.4725542596       -4.7165468414
 H         14.9231997390       -1.8090651674       -7.0369061583
 H         12.5905822163       -1.2860128891       -7.6598419249
 H         10.8015679786       -1.4169403442       -5.9771235958
 H         10.0264076904       -3.2093307476       -1.2712463720
 H         10.4120887649       -2.4959842872        1.0519886117
 H          7.6375020380        1.0085768709        0.3133189421
 H          5.4070756388        1.7654341709       -0.3086768169
 H          4.2105411573        3.7855019033       -0.5951917754
 H          2.0228618753        4.7042743435       -1.1953369881
 H         -0.6985412730        1.9960184113        0.1210873932
 H         -2.8012676635        0.8947689905        0.7506840423
 H         -5.2173535977        3.0702126640        3.6216363504
 H         -7.3418891989        2.0018214808        4.2248272759
