  47
 
 C         -5.1057924745       -2.4017559986       -0.1405724547
 C         -4.1496003505       -3.1266914981        0.5535445409
 C         -2.8347159266       -2.7041160169        0.5677890321
 C         -2.4560106445       -1.5441042204       -0.1100123731
 C         -1.0543812267       -1.1537006369       -0.0643587847
 N         -0.0750982137       -2.0255172021       -0.0370148294
 C          1.0729030250       -1.2981827195       -0.0005236084
 C          2.4115901442       -1.7814009676        0.0059137097
 C          2.6899352185       -3.1519700042       -0.0439057998
 C          3.9883401727       -3.5971246404       -0.0627551358
 C          5.0291953823       -2.6705368742       -0.0349413755
 C          4.7674947951       -1.3212178184        0.0184207385
 C          3.4538941247       -0.8267321988        0.0467353568
 C          3.1457585229        0.5910100100        0.1318163916
 C          4.1566392355        1.5571878042        0.2426252928
 C          3.8761998744        2.8984678496        0.3574026502
 C          2.5553820399        3.3353242540        0.3833340046
 C          1.5356337991        2.4220658331        0.2732372409
 C          1.7998781882        1.0521073375        0.1290214580
 C          0.7807152417        0.0645004246        0.0104921790
 N         -0.5936248291        0.1434550798       -0.0435292195
 C         -1.4093230387        1.2966063326       -0.0623961303
 C         -2.2477224294        1.5644182761        1.0127281971
 C         -3.0696339001        2.6774412538        0.9784186257
 C         -3.0572740834        3.5199842315       -0.1208656870
 C         -2.2202193724        3.2510139900       -1.1925324088
 C         -1.3971391443        2.1397984069       -1.1699322604
 C         -3.4185382537       -0.8344428621       -0.8256436267
 C         -4.7339144237       -1.2620104105       -0.8339581826
 H         -6.1350844726       -2.7287256448       -0.1482446666
 H         -4.4306300329       -4.0233567673        1.0863006141
 H         -2.0786633834       -3.2596437220        1.1014257740
 H          1.8550302163       -3.8356661248       -0.0723704777
 H          4.2058104978       -4.6544771993       -0.1025093539
 H          6.0532830178       -3.0149232580       -0.0558095592
 H          5.6050422667       -0.6421412034        0.0349302586
 H          5.1905800536        1.2523278828        0.2463993173
 H          4.6829163563        3.6121866923        0.4393843181
 H          2.3311760462        4.3860905792        0.4938933934
 H          0.5135147465        2.7627676779        0.3104551718
 H         -2.2503163709        0.8993414002        1.8638248635
 H         -3.7202169788        2.8853401177        1.8143129491
 H         -3.6998568924        4.3869636404       -0.1438688716
 H         -2.2098444378        3.9045636574       -2.0518566842
 H         -0.7411015464        1.9179012320       -1.9995507854
 H         -3.1412776444        0.0401070583       -1.3939110053
 H         -5.4709318947       -0.7025350339       -1.3913427974
