  82
 
 C         -8.5592993125        1.6277064918        1.0734898381
 C         -7.2042903280        0.9897151551        0.7653588303
 C         -6.4924508528        0.7092812989        2.1058868941
 C         -7.3345025244       -0.3107220280       -0.0071550370
 C         -8.5170143825       -1.0137782397       -0.1688320038
 C         -8.5530008821       -2.1906988937       -0.9001867183
 C         -7.4045309113       -2.6674703678       -1.5098232309
 C         -6.2140292032       -1.9819971068       -1.3653692779
 C         -6.1678559694       -0.8259163796       -0.5901959344
 N         -4.9839699692       -0.0815288019       -0.4626036431
 C         -3.7747593362       -0.6241771192       -0.0613197852
 C         -3.6521801940       -1.9922003686        0.2519698152
 C         -2.4523617870       -2.5181576784        0.6518717296
 C         -1.2900133559       -1.7254544621        0.7578380049
 C         -0.0484035353       -2.3358311696        1.2047351175
 O         -0.0986420827       -3.4143955536        1.8857792754
 C          1.2242259823       -1.7194201857        0.9052064099
 C          2.3464683268       -2.0591465915        1.6940645599
 C          3.5830221747       -1.5216723751        1.4471778974
 C          3.7610142349       -0.6381547359        0.3781300753
 N          5.0396000985       -0.0656748977        0.1189640944
 C          6.0046703730       -0.8302737574       -0.5020295257
 C          5.7006657307       -2.1441643520       -0.8895301523
 C          6.6466334910       -2.9386914902       -1.4963518577
 C          7.9168563317       -2.4367376829       -1.7382360163
 C          8.2151037829       -1.1352850581       -1.3776368435
 C          7.2823664526       -0.3095335864       -0.7647552114
 C          7.6581104833        1.1140107311       -0.4123499467
 C          8.0434560467        1.8555675983       -1.7078366860
 C          8.8553985154        1.0868658667        0.5585307836
 C          6.5152064181        1.8519356468        0.2514313365
 C          6.6852598306        3.1726236310        0.6447218004
 C          5.6813472809        3.8843882630        1.2756657486
 C          4.4683687448        3.2660051055        1.5405505760
 C          4.2692064423        1.9584163018        1.1599463596
 C          5.2768394587        1.2383246787        0.5005761194
 C          2.6774861721       -0.3320169076       -0.4491441983
 C          1.4365133750       -0.8636057957       -0.1956387366
 C         -1.4530632826       -0.3376078023        0.5736157648
 C         -2.6532075461        0.1947657788        0.1787153622
 C         -5.1892797359        1.2924813625       -0.6684953484
 C         -4.3606201201        2.0284333148       -1.5118966848
 C         -4.6154540850        3.3680645723       -1.7313825625
 C         -5.7069207814        3.9701003407       -1.1275097496
 C         -6.5578605668        3.2266082432       -0.3249847846
 C         -6.3212504975        1.8823218258       -0.0879190255
 H         -9.1540083240        0.9599264943        1.6911812757
 H         -8.4190809822        2.5474838151        1.6352550623
 H         -9.1050387194        1.8478411196        0.1588506543
 H         -5.5186670137        0.2494160842        1.9593353089
 H         -7.0981146106        0.0381329226        2.7111278749
 H         -6.3518166392        1.6404397072        2.6506561319
 H         -9.4292783018       -0.6516521980        0.2757608045
 H         -9.4846484126       -2.7253554329       -1.0079022350
 H         -7.4362976458       -3.5648654168       -2.1093249166
 H         -5.3230569969       -2.3199538720       -1.8727781703
 H         -4.5147197546       -2.6378305636        0.2076504021
 H         -2.3686287653       -3.5678191962        0.8945027388
 H          2.1915807356       -2.7477721383        2.5125492707
 H          4.4268854758       -1.7715050409        2.0746982547
 H          4.7103340354       -2.5313988229       -0.7083708704
 H          6.3923535014       -3.9479402001       -1.7832144507
 H          8.6667205883       -3.0526606981       -2.2106772778
 H          9.2042268779       -0.7574035795       -1.5843267449
 H          8.3419566635        2.8771763301       -1.4924132135
 H          7.1945961543        1.8801398369       -2.3886544122
 H          8.8688592234        1.3560739964       -2.2061884223
 H          9.1581955235        2.0949968903        0.8253342426
 H          8.5834918938        0.5565702087        1.4694267756
 H          9.7053551631        0.5831581885        0.1080476392
 H          7.6268186126        3.6649991225        0.4580120798
 H          5.8461914379        4.9105064421        1.5667218998
 H          3.6789419986        3.8022081975        2.0453288158
 H          3.3297484172        1.4733461912        1.3729745600
 H          2.8303308100        0.3186869081       -1.2988965941
 H          0.6215277728       -0.6548433467       -0.8722951745
 H         -0.6297452932        0.3265557238        0.7898022284
 H         -2.7420489156        1.2662815146        0.0938144680
 H         -3.5387914267        1.5382857418       -2.0117077491
 H         -3.9699751372        3.9362692662       -2.3841552194
 H         -5.9078952779        5.0176348640       -1.2940048832
 H         -7.4124772340        3.7130260665        0.1154750192
