80

O      2.057806   -2.399621   -1.788460
C      2.272052   -1.421054   -1.078532
C      3.670722   -1.019654   -0.775909
C      4.014125   -0.378656    0.418191
C      5.345826   -0.027116    0.665054
C      6.360141   -0.320977   -0.264002
N      7.732191    0.040758   -0.001239
C      8.038224    1.317558    0.599703
C      7.357443    2.483671    0.206901
C      7.653084    3.719301    0.788606
C      8.633179    3.809334    1.774101
C      9.319410    2.666650    2.177497
C      9.024673    1.431134    1.595190
C      8.798409   -0.874857   -0.333478
C     10.005403   -0.410511   -0.885818
C     11.037779   -1.296083   -1.206790
C     10.881831   -2.661104   -0.979357
C      9.694752   -3.142215   -0.433000
C      8.661738   -2.257172   -0.113285
C      5.999690   -0.984093   -1.449717
C      4.669685   -1.334817   -1.701944
C      1.116393   -0.660917   -0.548257
C      1.102151    0.739685   -0.556072
C     -0.006567    1.427599   -0.059263
C     -1.107366    0.720524    0.428514
C     -1.106893   -0.680090    0.401488
C     -2.251096   -1.461123    0.927777
O     -2.023212   -2.464580    1.597738
C     -3.655626   -1.050898    0.671142
C     -4.627372   -1.368073    1.624935
C     -5.962461   -1.008999    1.415099
C     -6.355591   -0.337614    0.244361
N     -7.733448    0.030506    0.024120
C     -8.050325    1.309112   -0.566235
C     -9.052358    1.425160   -1.545440
C     -9.356069    2.662506   -2.118884
C     -8.665380    3.804515   -1.720581
C     -7.670559    3.711448   -0.750272
C     -7.364690    2.473749   -0.178506
C     -8.795211   -0.877356    0.390996
C     -9.984438   -0.402675    0.972783
C    -11.011002   -1.280545    1.331068
C    -10.867111   -2.648364    1.112286
C     -9.698682   -3.139813    0.535622
C     -8.671639   -2.262040    0.178060
C     -5.367926   -0.041719   -0.712731
C     -4.030928   -0.400283   -0.508036
C      0.008549   -1.372763   -0.079057
H      3.269080   -0.164909    1.180005
H      5.595416    0.455507    1.607949
H      6.603447    2.439091   -0.575033
H      7.121155    4.610926    0.467319
H      8.864182    4.770357    2.226057
H     10.083422    2.732896    2.947662
H      9.560633    0.548631    1.936893
H     10.142565    0.649142   -1.087985
H     11.961276   -0.917469   -1.637041
H     11.684859   -3.350012   -1.227823
H      9.570947   -4.206586   -0.250641
H      7.751180   -2.654511    0.329136
H      6.754943   -1.223272   -2.195412
H      4.417903   -1.853512   -2.625146
H      1.942426    1.304157   -0.953983
H     -0.012374    2.515363   -0.051308
H     -1.952384    1.271051    0.835670
H     -4.349954   -1.894506    2.536311
H     -6.695840   -1.249494    2.181775
H     -9.591921    0.543236   -1.882176
H    -10.130506    2.731209   -2.878268
H     -8.903467    4.767136   -2.165952
H     -7.135269    4.602125   -0.432550
H     -6.598737    2.425488    0.591397
H    -10.111553    0.659395    1.169001
H    -11.920017   -0.894136    1.784297
H    -11.665087   -3.331331    1.391785
H     -9.584325   -4.206516    0.360582
H     -7.776138   -2.667332   -0.287084
H     -5.643199    0.447664   -1.644922
H     -3.306851   -0.185152   -1.289800
H      0.014883   -2.462065   -0.087080
