94
 xtb: 6.7.1 (edcfbbe)
C           -2.25027691872721       -1.64645071018523        5.77566621108171
C           -2.18480475626476       -1.47507605379413        4.28837067271327
C           -1.88768433252409       -0.22778859780924        3.74420448272634
C           -1.82849179712902       -0.03740913707734        2.38146554170473
C           -2.07551129170867       -1.09929907027555        1.50473764195613
N           -1.97734177528447       -0.90459520532479        0.11798037079544
C           -2.65928666988612        0.13655852791703       -0.50578448011507
C           -2.42141277331195        0.39823068403904       -1.85934971833208
C           -3.04218912516144        1.45306867964576       -2.49191537396275
C           -3.93358043024207        2.27895622889180       -1.81529810606734
C           -4.57227586519374        3.44516757711694       -2.50534010097949
C           -4.20472312406694        1.98834040546530       -0.48479402842716
C           -3.59054285869685        0.93507341109336        0.16309953834591
C           -1.68424552767143       -2.05081556270164       -0.69131782671874
C           -2.80484308884941       -2.74837731168535       -1.13383333900261
C           -2.70362934146400       -3.89712617918235       -1.89124103594465
C           -1.43498338218449       -4.35278762763988       -2.21532619784396
C           -0.32299154552243       -3.64853239587562       -1.80616192654865
C           -0.38584479466577       -2.47628589939279       -1.03942913517213
C            0.89735333472748       -1.68083566024785       -0.76550971223437
C            0.90718974315810       -0.56118844260528       -1.81322545233439
C            0.60003430398222       -0.92698302162514       -3.11788234035657
C            0.39506573762620       -0.01560846875248       -4.14168066533879
C            0.43707061562068        1.35499114083170       -3.85678811466867
C            0.78128578378336        1.75803021819345       -2.59736271965294
C            1.09758479048307        0.83242617053315       -1.57750660005276
N            1.72402889742852        1.39334936875841       -0.44593409144469
C            3.01013599640091        1.00953151148884       -0.14162978815127
C            3.87005845448706        0.49760449600321       -1.14409300869430
C            5.13165585754816        0.07956056839179       -0.83340309718290
C            5.61151114677449        0.11223605441324        0.49901673453870
C            6.98786247131268       -0.37518624474546        0.81156779610136
C            4.75639669641178        0.60135236459566        1.49388968039731
C            3.49541641317497        1.04765018187459        1.20515002930620
C            1.11585968325571        2.45538684455535        0.19282684580754
C           -0.28797465501877        2.54494003116088        0.21777297355850
C           -0.91292848688525        3.57271293097789        0.87248065721954
C           -0.17101409635147        4.56805125218574        1.53615453165115
C           -0.87387298356411        5.67359231659319        2.25584451212914
C            1.22090066012228        4.49699653116697        1.48080370875349
C            1.86579978535657        3.47715805352559        0.82269411215407
C            0.95819785638388       -1.20157002739635        0.68938066268644
C            0.94607422425478       -2.38625906823651        1.65057954631351
C            2.22740423041592       -3.19005513743681        1.46108679562031
C            2.30914232177221       -3.67768189760288        0.01928848401278
C            2.18913943743304       -2.51288218026594       -0.96273736375424
C           -2.36002395267750       -2.34996917850691        2.04599406619551
C           -2.41453016883780       -2.52769667160578        3.41683503200175
H           -2.58313595965461       -2.67088737718441        6.02705081797947
H           -2.92158163628800       -0.92668323125601        6.22874247807722
H           -1.24020663785609       -1.50810514956332        6.20984033726539
H           -1.69198954492817        0.60541525809144        4.40441603276200
H           -1.57361166310305        0.93526915615303        1.98721383885575
H           -1.73543328387709       -0.22690956184914       -2.40779933373185
H           -2.82444397607651        1.63990945650888       -3.53397749364862
H           -5.43086192285059        3.80731470226608       -1.94638758705378
H           -4.89567796786547        3.16964403417864       -3.50855073965797
H           -3.85569409567741        4.26218942860814       -2.60081857855634
H           -4.92056124812173        2.59120952428297        0.05650944477878
H           -3.84794096728776        0.72225475854796        1.18902834647038
H           -3.77874063416488       -2.36490958055270       -0.86044339433902
H           -3.58701171052266       -4.42327636269806       -2.21636499470995
H           -1.31067959874220       -5.25276671412561       -2.79915588803618
H            0.63564008832750       -4.03202052454163       -2.11357360031297
H            0.48085298494065       -1.97512631709525       -3.34883538746578
H            0.16990310360110       -0.36361880396602       -5.13741428416759
H            0.22437345959312        2.07999833832135       -4.62677930628790
H            0.87817264767083        2.80929239904843       -2.36616065841737
H            3.52083637847210        0.48554076738170       -2.16637796707416
H            5.78589952865224       -0.28214764574676       -1.61267030158585
H            7.73130947355454        0.18198035150168        0.23878034207441
H            7.21053433971527       -0.26255319336128        1.86996203349354
H            7.09271057831243       -1.42728293369360        0.54388985081084
H            5.09992220150266        0.61705698329085        2.51890104595173
H            2.83221151310860        1.37781316604366        1.99036550943189
H           -0.86493895955320        1.78713322012803       -0.28844495062245
H           -1.99260288457336        3.62003789813317        0.88241079239419
H           -1.49321568258516        5.27360394596063        3.05759147564720
H           -1.53301074829078        6.21522800788643        1.57359557409322
H           -0.16359709971766        6.37729074402442        2.68226725390443
H            1.80669020050632        5.27581458786623        1.94895594526413
H            2.94137382124573        3.47362053944039        0.73960115304618
H            1.90134859070547       -0.68718016465729        0.85652517667843
H            0.15640339617102       -0.50314665438251        0.91016495763435
H            0.87304323319580       -2.01813362722464        2.67858708050221
H            0.08214424553128       -3.02532215908892        1.46578400227670
H            3.08902695459011       -2.55541768749510        1.68803894718728
H            2.24642434726757       -4.04027246848914        2.14677077704269
H            3.26128070234910       -4.18576883035678       -0.14663060572553
H            1.50916994877998       -4.40046023482259       -0.14433086019389
H            3.03081847147249       -1.83498388996140       -0.79680855138850
H            2.27644064323035       -2.86938923774240       -1.98786771630898
H           -2.55093689175696       -3.18803322039824        1.39178673732127
H           -2.64909007505283       -3.50690061155423        3.80961575145854
