86
 xtb: 6.7.1 (edcfbbe)
C            6.40005584308317        2.15435559540601        1.76579681707426
O            5.89857115517073        1.07528023596259        1.01484220275396
C            4.71939256493768        1.16314272923949        0.36326398630075
C            3.98520177564740        2.33288544666855        0.17413214458042
C            4.45732121174483        3.62278953784315        0.48638936512724
N            4.77181777885156        4.71283379790571        0.67107979498638
C            2.68106974863882        2.28207064046277       -0.39846529917465
C            1.94019353170522        3.55847476704035       -0.64160693671897
C            2.11982043875237        1.07079194858503       -0.67310392889375
C            2.83125253375490       -0.13215981729300       -0.49930888627091
C            2.22460888233220       -1.40452125389259       -0.63433080417444
Se           0.40922346941874       -1.63293168110708       -1.23004501188308
Se          -0.60627235491210       -1.71648731089968        0.90122473719096
C           -2.38238248485994       -1.23631603999457        0.34748723141316
C           -3.21181080465831       -2.23149496442616       -0.14550369841630
C           -2.73206462473650       -3.61890820384645       -0.42026556815594
N           -4.50358249376008       -2.00585305964884       -0.35573649568202
C           -5.04123650779269       -0.80995050728050       -0.17099259412495
N           -6.39526325062861       -0.74527876704550       -0.12655987124145
C           -7.17014858727585       -1.89172779494403       -0.58276481112371
C           -8.25678453578800       -2.27128213274824        0.41498267868080
C           -9.26221679823961       -1.12522199969306        0.57308008625069
C           -8.55816455117589        0.22640217335829        0.40020504196490
C           -7.09396076772614        0.11928357761762        0.80663956465876
C           -4.19184298560759        0.34534838798763       -0.04447551611921
C           -4.56727037173648        1.66580463130688       -0.41184903932362
O           -5.74789624959925        1.76168462885834       -1.06270830066512
C           -6.15532340709781        2.95439587554237       -1.68585390464438
C           -3.70506843316522        2.72617664757873       -0.13861404390691
C           -4.01318843669486        4.08073807151380       -0.37132434515069
N           -4.18506948394871        5.21125656007417       -0.49108577975819
C           -2.42367270573060        2.48301530984600        0.43613293502573
C           -1.54594848203200        3.64341519951670        0.78307422307012
C           -2.00749348146467        1.19776106988973        0.61620650002693
C           -2.84656987486405        0.10132594945850        0.33882272002211
C            2.94274043477425       -2.53062811920402       -0.26328934108906
C            2.31934864444765       -3.88138389321171       -0.13610198141383
N            4.25250763766140       -2.46667629365047       -0.05094532486193
C            4.90871015340567       -1.31934320970147       -0.09468932229392
N            6.26358934152830       -1.40111314000985       -0.11599949302794
C            6.88005209922560       -2.69563616975579        0.10097034869585
C            8.22444783058318       -2.50403701454212        0.79851976708953
C            9.13387046334701       -1.61232317892706       -0.04046976591306
C            8.42919065210998       -0.28583674981137       -0.30537356832622
C            7.07452440399111       -0.54578685356172       -0.95731514290313
C            4.19287637622200       -0.07317278359993       -0.10035195110836
H            5.65529978974971        2.55507458002359        2.43988376681981
H            7.21872473924489        1.70882216507667        2.38762741850451
H            6.82396470885925        2.92009716823073        1.14376909287277
H            2.52825333161476        4.21681922561275       -1.27529671186584
H            1.82049803317341        4.11148867249778        0.32567532318542
H            0.98747601413096        3.37272143405391       -1.05444027948581
H            1.10935928396853        1.03392776489403       -1.01296857652463
H           -2.31373082961314       -4.05571385465728        0.51236277251672
H           -3.54181450881711       -4.22889733289156       -0.76105482643806
H           -1.92641433251342       -3.59582009014892       -1.14478924953007
H           -6.47722034636243       -2.74203678495556       -0.71053279298112
H           -7.62521532234472       -1.66189438532769       -1.53016764200266
H           -7.79569554382086       -2.50594453047246        1.39447372148864
H           -8.76063994558452       -3.18902259104456        0.09262112810335
H           -9.73649724180805       -1.18907180639071        1.55814775885269
H          -10.05422815762713       -1.23637953907059       -0.17151153830700
H           -9.05433186591684        0.98262137130468        0.99372439032024
H           -8.59850492751703        0.52893750722345       -0.64631070037312
H           -6.64365903031611        1.09650489968099        0.82876742524707
H           -7.03417818531226       -0.30248230466476        1.82746325662456
H           -7.05217868188070        2.65601581870441       -2.28996852549079
H           -5.40355495854733        3.32399698211071       -2.36980223290731
H           -6.45308750587725        3.69950480479022       -0.97821056843130
H           -1.36298454540371        4.25923858838902       -0.13380047635092
H           -0.62356501161804        3.31755870635391        1.17458575434753
H           -2.06219410415930        4.30556953071989        1.47356549226316
H           -1.01275795010614        1.01844477696869        0.95665609165438
H            1.53143700697001       -3.85618714794231        0.60696579029947
H            1.84722070305116       -4.16019601337350       -1.10041302553453
H            3.06571965394539       -4.60663749014375        0.11447856308300
H            7.01930227405283       -3.22171246270052       -0.87974280610900
H            6.19950501982310       -3.30831585089770        0.68960316708751
H            8.05624748527906       -2.06720496401260        1.75452345897731
H            8.68187006365288       -3.50440183678663        0.93459510187550
H            9.35179530776585       -2.12122121241042       -1.00816604837622
H           10.08088465867476       -1.46951111272288        0.46248468553275
H            8.28306516332055        0.21688361301718        0.63570333494073
H            9.03733433408830        0.33153683359685       -0.96133932759080
H            7.23733327237024       -1.05828189821931       -1.92834151248512
H            6.56083901933457        0.38391799069978       -1.15971714575390
