57

C     -6.568695   -3.676902    0.506319
O     -5.193183   -4.036269    0.491395
C     -4.287832   -3.017821    0.363505
C     -2.956832   -3.421840    0.367476
C     -1.912046   -2.499361    0.248950
C     -2.227380   -1.130348    0.144733
C     -3.556905   -0.707000    0.095686
C     -4.595198   -1.662639    0.220403
C     -3.556847    0.707039   -0.095452
C     -4.595058    1.662762   -0.220207
C     -4.287576    3.017920   -0.363296
O     -5.192839    4.036439   -0.491247
C     -6.568361    3.677127   -0.506784
C     -2.956545    3.421837   -0.367166
C     -1.911840    2.499272   -0.248612
C     -2.227290    1.130281   -0.144449
N     -1.419576   -0.000069    0.000122
C      0.007466   -0.000125    0.000063
C      0.710019   -0.752216    0.947438
C      2.107990   -0.747588    0.947864
C      2.823551   -0.000158   -0.000024
C      4.298453   -0.000095   -0.000023
C      5.020862    1.026893    0.645858
C      4.345752    2.098327    1.321714
N      3.823508    2.977180    1.870638
C      6.416678    0.989205    0.622280
C      7.255764    2.045585    1.287484
N      7.104930    0.000087   -0.000049
C      6.416793   -0.989122   -0.622362
C      7.256008   -2.045403   -1.287560
C      5.020979   -1.026995   -0.645909
C      4.345997   -2.098525   -1.321738
N      3.823869   -2.977457   -1.870644
C      2.107947    0.747266   -0.947886
C      0.709979    0.751929   -0.947371
H     -6.866302   -3.216690   -0.441653
H     -7.152556   -4.594331    0.628234
H     -6.797174   -3.021965    1.353663
H     -2.720712   -4.480531    0.455205
H     -0.887151   -2.856196    0.220316
H     -5.619422   -1.311231    0.190777
H     -5.619312    1.311442   -0.190609
H     -6.796508    3.022250   -1.354269
H     -7.152132    4.594590   -0.628894
H     -6.866390    3.216871    0.441033
H     -2.720336    4.480513   -0.454858
H     -0.886915    2.856019   -0.219928
H      0.189525   -1.313749    1.720300
H      2.631803   -1.330439    1.703681
H      8.321967    1.833710    1.153700
H      7.053986    2.074323    2.362810
H      7.053559    3.027838    0.849121
H      8.322186   -1.833268   -1.153977
H      7.054073   -2.074337   -2.362852
H      7.054090   -3.027640   -0.849029
H      2.631726    1.330121   -1.703724
H      0.189452    1.313484   -1.720193
