  73
 
 C         -6.0921234624        3.5793635200        0.0006014543
 C         -4.7112267680        3.7072336227        0.0006514985
 C         -3.8937959829        2.5843689914        0.0004689483
 C         -4.4846242252        1.3399409428        0.0002329166
 C         -5.8803195666        1.2056355012        0.0001534756
 C         -6.6908612269        2.3291906486        0.0003500635
 C         -6.2084820868       -0.2127855206       -0.0001628222
 C         -7.4300131852       -0.8663263724       -0.0003897170
 C         -7.4408966728       -2.2525388376       -0.0007357466
 C         -6.2562161381       -2.9734841776       -0.0008403600
 C         -5.0287480351       -2.3234155111       -0.0006036560
 C         -5.0130569019       -0.9459720496       -0.0002670330
 C         -3.8108844019       -0.0206084850        0.0000103931
 C         -2.9936793444       -0.2043277789       -1.2568402977
 C         -3.6298991805       -0.1134895091       -2.4860824306
 C         -2.9326324806       -0.2622585047       -3.6710084029
 C         -1.5704790108       -0.5053159281       -3.6279012606
 C         -0.9198097381       -0.5992143844       -2.4139605627
 C         -1.6192430249       -0.4518232124       -1.2133624302
 N         -0.9528465499       -0.5506263848        0.0001507711
 C          0.4414411819       -0.8289114437        0.0002294801
 C          0.8683572803       -2.1784342901        0.0005837669
 C          2.1956706486       -2.4915852999        0.0006336220
 C          3.1612591573       -1.4604447125        0.0003573323
 N          4.4664590209       -1.7672015337        0.0003814017
 C          5.3374716904       -0.7761406532        0.0001324669
 C          6.7503887221       -1.0824441433        0.0001275926
 C          7.2125439851       -2.4032680849        0.0003578237
 C          8.5703389335       -2.6366941359        0.0003093224
 C          9.4275032958       -1.5352063165        0.0000420768
 N          9.0133849979       -0.2887744257       -0.0001658924
 C          7.7031586148       -0.0443072670       -0.0001280984
 C          7.2656424515        1.3439589957       -0.0003363457
 N          8.1992617352        2.2951611612       -0.0005269337
 C          7.8243749284        3.5539324923       -0.0007252868
 C          6.4907284944        3.9654807163       -0.0007215176
 C          5.5116006190        2.9961743224       -0.0005192358
 C          5.8899816491        1.6489856569       -0.0003282852
 C          4.9072056204        0.5884654135       -0.0001255139
 N          3.6257392774        0.9018696445       -0.0001870240
 C          2.7319432790       -0.0987494245        0.0000327398
 C          1.3521590179        0.1941725266       -0.0000395166
 C         -1.6194475088       -0.4522719332        1.2135878577
 C         -0.9201806884       -0.5999731110        2.4142459633
 C         -1.5710380324       -0.5065001403        3.6281178873
 C         -2.9332128235       -0.2635416792        3.6710943828
 C         -3.6303011507       -0.1143917735        2.4861114716
 C         -2.9938940700       -0.2048080743        1.2569348090
 H         -6.7087754055        4.4667545867        0.0007729504
 H         -4.2658513665        4.6915275796        0.0008407284
 H         -2.8179168631        2.6858547596        0.0004961451
 H         -7.7668329433        2.2351847497        0.0003172283
 H         -8.3554065282       -0.3093390436       -0.0003063692
 H         -8.3845700487       -2.7790831620       -0.0009201303
 H         -6.2881365483       -4.0534201124       -0.0011236508
 H         -4.1066940789       -2.8870049314       -0.0006988290
 H         -4.6928440446        0.0792600857       -2.5078607159
 H         -3.4471457196       -0.1881317515       -4.6167891649
 H         -1.0076180097       -0.6228399367       -4.5421880006
 H          0.1428759951       -0.7888984165       -2.3929886697
 H          0.1180100865       -2.9548081151        0.0007922034
 H          2.5400414606       -3.5139117339        0.0008690658
 H          6.4914314323       -3.2063641894        0.0005253424
 H          8.9658080795       -3.6400464651        0.0004574065
 H         10.5020782637       -1.6653786271       -0.0000225783
 H          8.6305723501        4.2762241966       -0.0008505542
 H          6.2400815265        5.0144611897       -0.0008799036
 H          4.4601283784        3.2402289848       -0.0005306431
 H          1.0389585872        1.2268297641       -0.0002974918
 H          0.1425301497       -0.7895278712        2.3933747624
 H         -1.0083052912       -0.6242587755        4.5424532224
 H         -3.4478753803       -0.1897463571        4.6168196689
 H         -4.6932504259        0.0783375343        2.5077948293
