  90
 
 N         -2.0581029545       -8.5134569158       -0.2809258742
 C         -1.1580729975       -7.7980246162       -0.2490290547
 C          0.0000494702       -6.9997015726       -0.2128850271
 C          1.1581842336       -7.7980535385       -0.2483077470
 N          2.0582212105       -8.5134555153       -0.2806135953
 C          0.0000472058       -5.6269229224       -0.1551708072
 C         -1.1652390852       -4.7580725474       -0.1228233551
 C         -2.5241004866       -5.0367032868       -0.1254659245
 C         -3.4242559639       -3.9850244405       -0.0883388262
 C         -3.0029605116       -2.6533301370       -0.0541537659
 C         -3.9766287110       -1.5621466884       -0.0245189757
 C         -5.1708144348       -1.6773420195        0.6913005093
 C         -6.0844450419       -0.6477153976        0.7250015573
 C         -5.8476657866        0.5387157452        0.0238506829
 N         -6.7726490791        1.5769300633        0.0475984738
 C         -8.1462352714        1.3028557935        0.1346756112
 C         -8.9745782975        2.1063632339        0.9173695397
 C        -10.3291464336        1.8435837662        0.9926481511
 C        -10.8759498565        0.7754294525        0.2996603566
 C        -10.0564044134       -0.0271976779       -0.4776703799
 C         -8.7020495417        0.2328660612       -0.5660578539
 C         -6.3445900164        2.9115251580       -0.0213772178
 C         -7.0659079123        3.8441671011       -0.7659473284
 C         -6.6482655689        5.1601483167       -0.8246295723
 C         -5.5060517384        5.5646569149       -0.1524431491
 C         -4.7849143163        4.6410454059        0.5872094463
 C         -5.1997315473        3.3248564021        0.6593662419
 C         -4.6581634797        0.6559009594       -0.7015239321
 C         -3.7407345547       -0.3706149081       -0.7150583966
 C         -1.6279127933       -2.3736033561       -0.0513340591
 C         -0.7294608959       -3.4124998647       -0.0814722292
 C          0.7295335797       -3.4124946958       -0.0814420681
 C          1.6279749597       -2.3735892014       -0.0513113386
 C          3.0030246714       -2.6533036890       -0.0540985702
 C          3.9766808518       -1.5621094527       -0.0244580457
 C          5.1708410684       -1.6772764837        0.6914068019
 C          6.0844530270       -0.6476337838        0.7251277663
 C          5.8476758893        0.5387857169        0.0239577712
 N          6.7726358562        1.5770228102        0.0477368621
 C          6.3445404132        2.9116057819       -0.0212150784
 C          5.1996307895        3.3248743153        0.6594820361
 C          4.7847582406        4.6410458793        0.5873326542
 C          5.5058967172        5.5647074726       -0.1522561098
 C          6.6481656530        5.1602646026       -0.8243879353
 C          7.0658591508        3.8442988613       -0.7657206765
 C          8.1462246173        1.3029629763        0.1348108782
 C          8.9745622759        2.1064525544        0.9175282300
 C         10.3291305198        1.8436718301        0.9928062696
 C         10.8759405924        0.7755420891        0.2997856204
 C         10.0564010173       -0.0270632814       -0.4775738268
 C          8.7020448683        0.2329948512       -0.5659514338
 C          4.6582022678        0.6559404887       -0.7014676495
 C          3.7407939407       -0.3705934143       -0.7150276094
 C          3.4243338093       -3.9849938832       -0.0882659133
 C          2.5241887170       -5.0366816109       -0.1253991444
 C          1.1653251489       -4.7580638976       -0.1227518409
 H         -2.8864363469       -6.0523007115       -0.1602880467
 H         -4.4811006880       -4.2034954624       -0.1112898737
 H         -5.3664641005       -2.5730517673        1.2618561225
 H         -6.9897919396       -0.7494732013        1.3050855516
 H         -8.5482464969        2.9344010595        1.4648068027
 H        -10.9601845097        2.4724233468        1.6036633144
 H        -11.9341297347        0.5709195907        0.3630761063
 H        -10.4760531389       -0.8572112467       -1.0272007920
 H         -8.0672995607       -0.3873959049       -1.1821234714
 H         -7.9522139101        3.5293252866       -1.2973596515
 H         -7.2148252624        5.8724373743       -1.4065237838
 H         -5.1808946404        6.5929065429       -0.2040467191
 H         -3.8972023779        4.9490305663        1.1203017259
 H         -4.6429595316        2.6093127487        1.2468175302
 H         -4.4668145198        1.5574844426       -1.2645783034
 H         -2.8434522493       -0.2647318725       -1.3063544932
 H         -1.2844711566       -1.3519315128       -0.0006199301
 H          1.2845220405       -1.3519191093       -0.0006329654
 H          5.3664924163       -2.5729834092        1.2619668020
 H          6.9897855138       -0.7493715845        1.3052380183
 H          4.6428626905        2.6092953833        1.2468939118
 H          3.8970129251        4.9489824495        1.1203977160
 H          5.1806977831        6.5929442609       -0.2038522927
 H          7.2147199404        5.8725903573       -1.4062426162
 H          7.9522008640        3.5295081622       -1.2971035108
 H          8.5482289716        2.9344829125        1.4649756235
 H         10.9601681345        2.4725058957        1.6038276658
 H         11.9341201701        0.5710310400        0.3632022832
 H         10.4760506314       -0.8570704128       -1.0271131556
 H          8.0672956406       -0.3872583996       -1.1820267332
 H          4.4668547921        1.5575192366       -1.2645306790
 H          2.8435253932       -0.2647295363       -1.3063482079
 H          4.4811816194       -4.2034517306       -0.1112302452
 H          2.8865345644       -6.0522755994       -0.1602278514
