102
 xtb: 6.7.1 (edcfbbe)
C           -8.39004194840318        2.64890197442325        0.61263127586445
C           -8.60284512750058        1.40391308501526        0.04483892309148
C           -7.53169943307319        0.58030876658733       -0.24729656243264
C           -6.22725964370970        0.98950539366169        0.01969487655832
C           -5.08472409287949        0.11847631589682       -0.29569944221476
C           -5.15342303846643       -1.25253890437154       -0.01379445316297
C           -4.10481321647849       -2.10688648671187       -0.28619975236778
C           -2.96144583747078       -1.56907613517138       -0.85777876680088
N           -1.78839543929759       -2.17912403464181       -1.21639895116878
C           -0.94515701207748       -1.24659106424919       -1.75998904932418
C            0.34803457489605       -1.41732048796470       -2.24994737032153
C            1.04100870963779       -2.69972540540650       -1.99133613754634
C            1.36169639728460       -3.60810514073681       -3.00001344362188
C            1.94184026440115       -4.82750688289834       -2.70741165223928
C            2.19551578840024       -5.14649324258999       -1.37919984869965
C            1.87911815264706       -4.21850675049023       -0.35781792413187
N            2.23471284423694       -4.74682691999352        0.85627635036062
C            2.77126462919019       -5.99467481464253        0.66372938261450
C            3.26233240386921       -6.89902025810399        1.59251381393725
C            3.75112449661778       -8.10233442497018        1.12121003087364
C            3.75218760506954       -8.40256038337008       -0.23971179327888
C            3.26353710569758       -7.50598456159177       -1.16887844198174
C            2.76700341057127       -6.28865108210191       -0.72067620844976
C            1.31233672553415       -2.98435592161104       -0.64719978601031
C            1.02901557439072       -1.95142102853794        0.37300643681121
C            0.05724904726545       -2.08622033722937        1.35081542457805
C           -0.28207156400239       -1.03433823031576        2.21180929482066
C           -1.33046199348767       -1.22360324551321        3.22708552714175
C           -1.14551100896709       -0.76160561573880        4.52803471316669
C           -2.13196292452945       -0.93011615749324        5.48174547077401
C           -3.32249345564493       -1.55510129954331        5.14975259563655
C           -3.51849332769324       -2.01323133760264        3.85789291246311
C           -2.52913872147187       -1.85395352173752        2.90579872812981
C            0.34799848439524        0.19762383833233        2.09182966108524
C            1.33996540788600        0.35894968989849        1.13625038794111
C            1.69345176322607       -0.72723712187805        0.30637249127171
N            2.71991500906981       -0.34883641072885       -0.51570423993489
C            3.01445507152249        0.96948898695287       -0.29296772488355
C            3.94976656707465        1.78639043541413       -0.90777856498216
C            4.04559073864951        3.09295754674514       -0.47881317239456
C            3.23525270480616        3.60073827653849        0.54693176086513
C            3.39162095834363        4.99692569823879        0.98182846199150
C            3.66500886150326        6.00900209905324        0.06340517834376
C            3.81143298052567        7.31967522811222        0.47711863614498
C            3.69381331620224        7.64574147870091        1.81780499536624
C            3.42945792323657        6.64890242555589        2.74180261429571
C            3.27899727804274        5.33851118106006        2.32856380602024
C            2.29565188165448        2.77558152889877        1.15425014613955
C            2.17937464552923        1.45816618112273        0.73865611590279
C            0.96289148360000       -0.30605781151635       -2.79880306897678
C            0.37014877931920        0.96340156746363       -2.76840727389502
C            1.14058195261174        2.13326929100868       -3.21418990402292
C            1.94817993724204        2.08548354359615       -4.34764272308440
C            2.68516062112874        3.18919580152908       -4.73476479253831
C            2.62548862203281        4.36071552452273       -3.99881041273803
C            1.82447558857102        4.42013709996390       -2.87086300151977
C            1.09404299193577        3.31543846333186       -2.47825718682642
C           -0.90339115304141        1.12423708712766       -2.23756123553559
C           -1.58082174451352        0.01312458265198       -1.75852200858439
C           -2.87527693274091       -0.19066291263150       -1.16536598130793
C           -3.93954969541582        0.64904203060525       -0.87657218077418
C           -6.02544869950233        2.24469737667789        0.58923944701372
C           -7.09769628820686        3.06551865752683        0.88455629100939
H           -9.24333648385081        3.26314769029359        0.85215708622890
H           -9.62090065559448        1.05212503917875       -0.17649977950588
H           -7.71375962128903       -0.40039374477912       -0.71498433353205
H           -6.05643528358359       -1.66653200235591        0.43771914299341
H           -4.17986854566541       -3.17891299243702       -0.07718374009650
H           -1.57862082613617       -3.16444075404483       -1.12112673316602
H            1.12868849235303       -3.34616532946348       -4.02323325748655
H            2.18181373860108       -5.52418788660230       -3.49463866222489
H            2.12640916328611       -4.27836237766072        1.74004473801481
H            3.26930023066979       -6.66341955325426        2.64622753092058
H            4.14635438256347       -8.82173480505101        1.81994920756700
H            4.14348742870331       -9.35165402477259       -0.56884046310145
H            3.26243164646683       -7.74145684547710       -2.22281859019216
H           -0.47333088257947       -3.01599956521437        1.44240512221297
H           -0.22178388101761       -0.26429473926805        4.78385745714106
H           -1.98772922646712       -0.54310997385816        6.47311224601486
H           -4.11288408949164       -1.64405674398156        5.87273796943814
H           -4.46157431490228       -2.45840614712996        3.56761065282181
H           -2.70266864293848       -2.16966919351143        1.87967766538846
H            0.05514411955202        1.03516094191614        2.70921551231120
H            3.15216832117066       -0.94262317581512       -1.21303789773062
H            4.60216267415218        1.39876056216471       -1.69739223684087
H            4.80703477717440        3.72662902042391       -0.93524682386634
H            3.78277722877606        5.75670705613562       -0.99770044582562
H            4.05683635046046        8.08335201735376       -0.26735697592355
H            3.84121979936566        8.66846178110060        2.12078071291375
H            3.36226624626220        6.89898802768555        3.77384648837906
H            3.10696332975879        4.56915818760377        3.04861689916319
H            1.66057210901433        3.16511395095254        1.91435843643993
H            1.95671027210062       -0.39686925401679       -3.19161064001844
H            1.98720707463993        1.20128731899313       -4.91658757532940
H            3.31113871593566        3.16209021283191       -5.57436196573272
H            3.19556240471897        5.23889714210008       -4.24908668708326
H            1.75148460682254        5.33154040890327       -2.24227698095255
H            0.48120353761165        3.35531463257555       -1.54945891032616
H           -1.37586828161038        2.09647547550624       -2.19666351081786
H           -3.89969812512789        1.68771266876684       -1.11321682833488
H           -5.03521308435244        2.54352474111941        0.83068470398842
H           -6.94275862426288        4.00567502143475        1.34875714303013
