  73
 
 N         -0.0041961804       -3.9390741430        0.0003168234
 C         -0.0029312719       -2.7906952302        0.0000981782
 C         -0.0013987469       -1.3813702743        0.0000240959
 C          1.2121539256       -0.6711666410        0.0752256628
 N          2.4272534407       -1.3543904598        0.1459681806
 C          3.3828902776       -1.1946291732        1.1359653147
 C          3.3566407729       -0.3889595410        2.2640536733
 C          4.4436818649       -0.4414771411        3.1172695959
 C          5.5263887767       -1.2799929930        2.8632848271
 C          5.5471945565       -2.0979040269        1.7502538712
 C          4.4681204662       -2.0604457723        0.8765331895
 C          4.1556118124       -2.7582942246       -0.3414477771
 C          4.8382548158       -3.6938825897       -1.1077365380
 C          4.2566331746       -4.1415059388       -2.2775678439
 C          3.0202413260       -3.6554928196       -2.6954382969
 C          2.3224370534       -2.7236461145       -1.9499752204
 C          2.8880124631       -2.2963526201       -0.7588155137
 C          1.2024903199        0.7152869462        0.0902172919
 C          0.0015701221        1.4180085552       -0.0000418548
 N          0.0030153165        2.8085488127       -0.0000677720
 C         -0.8282455268        3.6221894222        0.7565129323
 C         -1.7785783153        3.2800069447        1.7072385583
 C         -2.4466709206        4.3055177771        2.3514877436
 C         -2.1732878867        5.6416461723        2.0703414347
 C         -1.2070744015        5.9882092772        1.1460991733
 C         -0.5239784230        4.9748412545        0.4868038282
 C          0.5340596261        4.9737887927       -0.4871854286
 C          1.2190531389        5.9858069949       -1.1465841343
 C          2.1846399392        5.6373352194       -2.0707638293
 C          2.4555686917        4.3006690583       -2.3517177827
 C          1.7855552377        3.2764728096       -1.7073647822
 C          0.8358016147        3.6205361179       -0.7567421110
 C         -1.2008306873        0.7178313737       -0.0903267457
 C         -1.2134373846       -0.6685950387       -0.0752501959
 N         -2.4299804174       -1.3492465190       -0.1459386178
 C         -2.8927124043       -2.2901342176        0.7589493844
 C         -2.3280703632       -2.7184098870        1.9501989425
 C         -3.0278492448       -3.6486636375        2.6957999754
 C         -4.2652594367       -4.1321305302        2.2779887367
 C         -4.8459116167       -3.6834806743        1.1080681387
 C         -4.1612694307       -2.7494787172        0.3416252714
 C         -4.4722959035       -2.0511405168       -0.8764560830
 C         -5.5514286337       -2.0864457647       -1.7501918246
 C         -5.5289214257       -1.2686636095       -2.8632850479
 C         -4.4444834589       -0.4324094897       -3.1173342806
 C         -3.3573410708       -0.3820772334       -2.2641169467
 C         -3.3852699246       -1.1876027030       -1.1359665981
 H          2.5158808113        0.2541288130        2.4778711316
 H          4.4503326200        0.1790731390        4.0011733313
 H          6.3566191305       -1.2928653140        3.5536543598
 H          6.3803657731       -2.7574592567        1.5611282721
 H          5.8055289544       -4.0562614812       -0.7943880507
 H          4.7687951198       -4.8719100390       -2.8859626675
 H          2.5970189824       -4.0105687389       -3.6233145975
 H          1.3700890061       -2.3460443208       -2.2925157803
 H          2.1365866474        1.2478133386        0.1742637989
 H         -1.9884095486        2.2502643449        1.9538605707
 H         -3.1941734631        4.0622790500        3.0921634902
 H         -2.7183798312        6.4138578974        2.5925115937
 H         -0.9795253858        7.0234104334        0.9418960749
 H          0.9934094733        7.0214534603       -0.9425247994
 H          2.7311653118        6.4084691286       -2.5930290647
 H          3.2026569210        4.0559611601       -3.0923279037
 H          1.9935157797        2.2463107714       -1.9538226261
 H         -2.1337957208        1.2523288878       -0.1744390868
 H         -1.3749512564       -2.3427341808        2.2927122604
 H         -2.6053984860       -4.0044712623        3.6237490609
 H         -4.7789681433       -4.8613498683        2.8865006120
 H         -5.8139465535       -4.0438598249        0.7947617928
 H         -6.3860023353       -2.7442127291       -1.5610064970
 H         -6.3591776934       -1.2798580699       -3.5536530472
 H         -4.4498503511        0.1880798647       -4.0012891422
 H         -2.5152324192        0.2592295096       -2.4779816848
