164
 xtb: 6.7.1 (edcfbbe)
C          -12.06215053203100       -1.34470808210735       -0.94546715303958
C          -10.66563488374787       -0.99679206119775       -1.36730611454536
C          -10.45252416288041       -0.14650420953303       -2.44835818004791
C           -9.16528835207593        0.17530515274733       -2.83961036229345
C           -8.07524379986195       -0.34241876366678       -2.16685305344837
C           -8.26954159646432       -1.19195182761136       -1.07897731135387
N           -7.17533853858322       -1.71581187657735       -0.38184549003047
C           -7.21282759108163       -3.02737998005501        0.10145103477774
C           -7.82506528646308       -4.03805306415380       -0.63877796486027
C           -7.85670324145601       -5.32903012233031       -0.14738506008856
C           -7.27969963388196       -5.63279536431782        1.07294158019489
C           -6.66383589324369       -4.63724976437718        1.82509766488455
C           -6.07076071892313       -4.95993824140928        3.16428293971303
C           -6.63872411950657       -3.34302149069651        1.33286365954334
C           -6.04638418413689       -0.91502591499333       -0.15862109749062
C           -6.20644547027567        0.43720307755759        0.11670190402088
C           -5.08917321076160        1.23936017888897        0.33761643099775
C           -3.79013512203677        0.69230954723403        0.29141095415629
C           -3.65432150715476       -0.68340482764337        0.00701807300692
C           -4.77607518134521       -1.47734461683121       -0.21632977199801
N           -2.39353509215425       -1.24417664555302       -0.05183697809667
C           -2.31100074357436       -2.65673150587364       -0.24095361779633
C           -2.25645866510601       -3.19046222144350       -1.52279603872104
C           -2.19742517667272       -4.56177370632176       -1.69576020338699
C           -2.19299994638231       -5.40209174869757       -0.59450419113356
C           -2.24017242567030       -4.86983416965036        0.68288763675407
C           -2.29883496376953       -3.49902883275239        0.86268918885187
C           -1.21755824279674       -0.51695723652707       -0.00093651823469
C           -0.00845787764662       -1.18650042241386       -0.16669125925294
C            1.20746323984452       -0.50916783360846       -0.18436782592896
C            1.22715963068187        0.90678648230798       -0.12364913163074
C            0.00447676477208        1.52782807525171        0.11785152641617
C           -1.22374425790606        0.88117173085193        0.23163186163073
B           -2.57136511091663        1.56192579908334        0.54035949361340
C           -2.88752015023227        2.98514731765830        1.04978103290051
C           -1.95056941582766        3.88405630291215        1.57684967048786
C           -2.27826457599229        5.16240201416131        1.96322919270590
C           -3.59201912753017        5.61594386650813        1.83669223407252
C           -3.94754810426088        7.02040537096524        2.22297167283256
C           -4.54956954704765        4.74146626314971        1.36848445857630
C           -4.22896347962813        3.42651936318111        1.00162256121167
N           -5.25232735140295        2.58305647528284        0.60585100986216
C           -6.57763684700056        3.10953097878724        0.52363505470929
C           -7.40313782318747        3.11205900310849        1.64020981303471
C           -8.69005743925945        3.61004965883298        1.53220395018546
C           -9.14905542783702        4.10043288438001        0.32287457304768
C           -8.33006492677481        4.10584024466856       -0.80157750557339
C           -8.83147107727734        4.65790821557020       -2.10100416338789
C           -7.04101553253233        3.60410785700479       -0.68769616851565
B            2.58321828110592        1.62324202549428       -0.27563032406160
C            2.91583031373980        3.11796669752638       -0.47515111437956
C            1.99200223803760        4.11709783230117       -0.80999316716863
C            2.33143683372302        5.44649041044931       -0.90474287653354
C            3.64433759209280        5.85100216067440       -0.65872079254283
C            4.02111874334642        7.30026358387393       -0.74193734539431
C            4.59100319608407        4.88714337701141       -0.38358634521511
C            4.25944882878968        3.52629652082714       -0.31809043315742
N            5.27273237328971        2.60906553538632       -0.10093383901519
C            6.60288402545164        3.09518967025365        0.08488163215916
C            7.08170546477316        3.31806564347608        1.36776379128582
C            8.37689724223741        3.77723747120447        1.53924588721444
C            9.18477769123430        4.01069938450336        0.44163077076296
C            8.71542096265303        3.79045446318045       -0.85014142119944
C            9.60019889612444        4.05497396155259       -2.02986577416420
C            7.41748893707816        3.33001426809493       -1.01582583519522
C            5.09606388625447        1.24073429933010       -0.11240228322600
C            6.20242366033971        0.39913996585058       -0.01815122355325
C            6.03021038372164       -0.97912410965549       -0.05055237870475
N            7.14814743582869       -1.82191946904001        0.01571256923401
C            7.07096770654856       -3.03421344411893        0.70986891684789
C            7.70331636275759       -4.17471915706212        0.21718449768281
C            7.61614794834449       -5.36521348814207        0.91341689830678
C            6.89970879794399       -5.43959884211137        2.09461851793734
C            6.26156552799310       -4.31120501269893        2.60098184201401
C            5.50970521504755       -4.38711891992114        3.89650595081792
C            6.35716888830262       -3.11772043670264        1.90526401760817
C            8.33701248633327       -1.45746364165952       -0.62495258436884
C            8.31018300963514       -0.80594865888673       -1.85713493858569
C            9.49406613849977       -0.44738647458710       -2.47220004261961
C           10.71132863817073       -0.73738745039246       -1.88175727338100
C           10.75763870489663       -1.39368310183538       -0.65570906599066
C           12.07635919455912       -1.69355921854581       -0.00733576021803
C            9.56890158626623       -1.74246795335357       -0.03646803712158
C            4.75613617000922       -1.52755732713657       -0.14869727023889
C            3.64242029931055       -0.69391203575533       -0.19987322448364
C            3.79232153504727        0.70933902979886       -0.19656969142829
N            2.37707449149047       -1.24285723031583       -0.27415042766905
C            2.28267719327526       -2.66445034787726       -0.36112624963982
C            2.17752896082838       -3.42981318322252        0.79371919229461
C            2.10956542218280       -4.80829247387682        0.70266571464373
C            2.14385594976308       -5.42589718627879       -0.53669675400542
C            2.24100974593671       -4.66281114802263       -1.68831597446488
C            2.31145643346489       -3.28312711777732       -1.60398806260286
C           -9.57126748599048       -1.50821772996489       -0.69034946413921
H          -12.05685036515514       -1.95514788884978       -0.04689294277885
H          -12.63758108418227       -0.44005326865275       -0.75315579451412
H          -12.56733746769506       -1.89712294333965       -1.73822813360179
H          -11.29859275336296        0.26105011202345       -2.98292373233996
H           -9.00654846931190        0.83037328909994       -3.68487394338602
H           -7.07037799925553       -0.09554197608007       -2.47712641028294
H           -8.26894733244372       -3.80476699957671       -1.59634214037166
H           -8.32978173251282       -6.10790219837145       -0.72932909414343
H           -7.30782986274268       -6.64612487764865        1.44597233473151
H           -5.50365031593323       -5.88771103899958        3.11818351791972
H           -6.86475335528283       -5.09120956247023        3.89999652137392
H           -5.41832144222484       -4.16046812152487        3.50393810966711
H           -6.17105243185380       -2.55681644890589        1.90783326427478
H           -7.20329567705249        0.84597546284207        0.16382080288591
H           -4.67989789249745       -2.52695458413425       -0.44574453414939
H           -2.26272598369592       -2.52419224856065       -2.37371549577676
H           -2.15695638280872       -4.97433246239549       -2.69352373555457
H           -2.14956316825854       -6.47196526801816       -0.73376936066738
H           -2.22982526230171       -5.52345568330654        1.54177173275584
H           -2.33631090456339       -3.07143892360285        1.85340532269757
H           -0.01365790819101       -2.25887856375381       -0.28203553818151
H            0.00901853488669        2.59783989362036        0.23146217442824
H           -0.93220976381986        3.55229774822001        1.70650866432956
H           -1.52143019023018        5.82240930833875        2.36424415847629
H           -3.39348633447934        7.73073994797838        1.60968207302277
H           -5.01202853236491        7.20455103642438        2.09353004639001
H           -3.68461918919581        7.20588336187788        3.26412573097189
H           -5.57308842048466        5.08059595158374        1.29636630666270
H           -7.03345886720196        2.72459859361242        2.57802211703467
H           -9.33788644607638        3.61299108769716        2.39657783339567
H          -10.15548041796308        4.48612359223521        0.24698014667980
H           -8.91780033422546        5.74312144815342       -2.03680140300695
H           -9.81721966664951        4.25833708140322       -2.33021683735838
H           -8.15305661241334        4.41517979718659       -2.91486680085202
H           -6.38179366945728        3.59200299828697       -1.54411022622822
H            0.97125328239889        3.82931209398452       -1.00816187165188
H            1.58235527046157        6.18276822597443       -1.16102578809940
H            3.92795624251569        7.65759050259731       -1.78638832477874
H            3.33903636629242        7.90127196359004       -0.12545668026297
H            5.05037796248818        7.45708668183012       -0.40976871243245
H            5.61650649556176        5.19454785118418       -0.23669750674040
H            6.43914250861047        3.13331812536059        2.21558154259742
H            8.75483580659542        3.95511709915291        2.53566032292326
H           10.19431839393630        4.36946380858339        0.58422652503993
H            9.88435411873844        5.10566321965505       -2.06016218127423
H           10.51522730308014        3.46587879612280       -1.95469135494179
H            9.09792516214059        3.80139419361647       -2.95868610712695
H            7.02517325869273        3.14785535321373       -2.00613837544540
H            7.20034356356369        0.79934560686378        0.06933883866128
H            8.25590173076736       -4.12035676176809       -0.70947190350287
H            8.10582634804641       -6.24631875844033        0.52364703487881
H            6.83430281279343       -6.37613551858034        2.62930049331616
H            6.20755772254228       -4.49103338014134        4.72755398203823
H            4.85137701340522       -5.25443632652849        3.90649000663545
H            4.91654607998711       -3.49065057299907        4.05643368327997
H            5.87448597550126       -2.22956353672776        2.28817042732313
H            7.36122447734583       -0.58883182995912       -2.32411232628465
H            9.46600217261791        0.05415513216257       -3.42866325830897
H           11.63209505294838       -0.45766485368085       -2.37284063979524
H           12.51217907472546       -0.77840053390149        0.39475033137359
H           12.77541087239178       -2.10454125939401       -0.73323625121480
H           11.95701677213807       -2.40306128386918        0.80839934061411
H            9.58824392929196       -2.24466598216325        0.92112897398114
H            4.65074751106786       -2.60039559355286       -0.17536468702740
H            2.14965386682221       -2.93628962725691        1.75404326299544
H            2.02783814702626       -5.40200369531880        1.60053474377821
H            2.09217558832791       -6.50197019628319       -0.60571101374352
H            2.26475283595084       -5.14132464556581       -2.65625622388502
H            2.39185588026955       -2.67605489993765       -2.49422021809805
H           -9.72027671518794       -2.16258309074591        0.15657427007838
