  90
 
 C          6.3365854221       -0.7012148901       -1.8042728437
 C          6.6639395462       -1.4433606068       -0.4904680808
 C          7.9422293189       -2.2528137467       -0.7121876819
 C          6.8013828183       -0.4335951787        0.6335108807
 C          7.9996995812       -0.0628037102        1.2156581955
 C          8.0371703666        0.8545258307        2.2569341825
 C          6.8581322517        1.3919682421        2.7533463574
 C          5.6498159003        1.0404621047        2.1890516327
 C          5.6153323042        0.1583026319        1.1068754982
 N          4.4029461976       -0.2615296394        0.5421164973
 C          3.4085284100        0.5975175707        0.1213633561
 C          3.5568939357        2.0050469660        0.2391673916
 C          2.5579933698        2.8278633777       -0.1981660718
 C          1.4132126215        2.3135233760       -0.8173609969
 C          1.2657556399        0.9201280989       -1.0192058038
 C          2.2631951642        0.1006569058       -0.5460702930
 C          0.0482392962        0.3964031102       -1.7620092226
 C          0.1206415041        0.8612908321       -3.2321805796
 C          0.0037894958       -1.1362464029       -1.7827560177
 C         -1.1969231640        0.9861526228       -1.1182877576
 C         -2.2801172392        0.2214663036       -0.7381260542
 C         -3.4281115540        0.7980102152       -0.1778971935
 N         -4.5472870655       -0.0230932735        0.1365655353
 C         -5.3575814980       -0.4703136226       -0.8864085714
 C         -5.0583613734       -0.1155133429       -2.2114613423
 C         -5.8339995918       -0.5645678107       -3.2555692915
 C         -6.9320862451       -1.3740552048       -3.0018633937
 C         -7.2468938032       -1.7053121679       -1.6964403563
 C         -6.4848684801       -1.2664597707       -0.6219732591
 C         -6.8995806320       -1.6286551949        0.7876274744
 C         -8.3048111522       -1.0494063396        1.0465504272
 C         -6.9262920053       -3.1641994775        0.9228796984
 C         -5.9428309458       -1.0713854377        1.8190340391
 C         -6.1672676211       -1.3120717786        3.1677346300
 C         -5.3064041928       -0.8502695876        4.1470961446
 C         -4.1723524345       -0.1389964105        3.7810897086
 C         -3.9262195257        0.1209878785        2.4524628381
 C         -4.8113478737       -0.3211251029        1.4563850636
 C         -3.4857020187        2.1827326573        0.0565891854
 C         -2.4087093221        2.9539593670       -0.2911050963
 C         -1.2863486972        2.3812318241       -0.8995602585
 S          0.1002064834        3.4152553443       -1.1956990951
 O          0.1563447978        3.8865939668       -2.5829241727
 O          0.1041182912        4.5046954822       -0.2266595012
 C          4.3453488222       -1.6544971767        0.3965076443
 C          3.2414811753       -2.3868851139        0.8398769325
 C          3.2358520858       -3.7611461475        0.7261428955
 C          4.3343162514       -4.4156975836        0.1869049248
 C          5.4525344869       -3.6926579085       -0.2059710854
 C          5.4839191070       -2.3138884913       -0.1017306754
 H          5.4386273148       -0.0958302161       -1.7143300320
 H          7.1631498352       -0.0469280991       -2.0730621458
 H          6.1857775982       -1.4211773349       -2.6058705352
 H          7.8006200440       -2.9572317028       -1.5276650896
 H          8.2198754679       -2.7987692006        0.1864722525
 H          8.7579261033       -1.5919159756       -0.9935053738
 H          8.9271789095       -0.4849166541        0.8651599202
 H          8.9848175847        1.1330148977        2.6920360594
 H          6.8807017900        2.0753921631        3.5889761182
 H          4.7245081100        1.4147021569        2.6002895204
 H          4.4631519721        2.4295859074        0.6363882394
 H          2.6291765769        3.9005559814       -0.1001314064
 H          2.2058383196       -0.9584803787       -0.7194053379
 H          1.0195213127        0.4635030333       -3.6993475593
 H          0.1454900679        1.9433445479       -3.3073656655
 H         -0.7480796869        0.4979329150       -3.7776509958
 H         -0.0515708851       -1.5473160743       -0.7781192563
 H          0.8889913093       -1.5241367661       -2.2798242947
 H         -0.8587983787       -1.4693553891       -2.3538960807
 H         -2.2815666258       -0.8482101245       -0.8675525569
 H         -4.2131833411        0.5248223163       -2.4067931638
 H         -5.5851669126       -0.2809078389       -4.2669879983
 H         -7.5445978330       -1.7338309768       -3.8143161296
 H         -8.1150092699       -2.3198009192       -1.5164078513
 H         -9.0207518449       -1.4422019568        0.3308051247
 H         -8.6470844366       -1.3012069512        2.0458154082
 H         -8.2831682879        0.0347653488        0.9522868151
 H         -5.9331063507       -3.5702065883        0.7410548894
 H         -7.2408556804       -3.4570717309        1.9199459406
 H         -7.6143007820       -3.6020363335        0.2061271166
 H         -7.0353649170       -1.8769289842        3.4694481405
 H         -5.5122389956       -1.0521276657        5.1870986456
 H         -3.4812319323        0.2124760230        4.5322277829
 H         -3.0434919597        0.6699621590        2.1649736671
 H         -4.3694105908        2.6182509099        0.4975009051
 H         -2.3908471734        4.0193967221       -0.1198008477
 H          2.4158503379       -1.8701237053        1.3051652088
 H          2.3812700456       -4.3244790315        1.0693132568
 H          4.3309904232       -5.4906438454        0.0908219794
 H          6.3025664609       -4.2266547936       -0.5977055621
