87

C      7.309407    2.971334   -0.251990
C      6.015921    2.279948   -0.568281
C      4.909091    3.020635   -0.983549
C      3.682108    2.405108   -1.251194
C      3.579015    1.008021   -1.096157
C      4.665363    0.246121   -0.666529
C      5.892650    0.892914   -0.398309
C      4.245907   -1.116297   -0.614595
C      4.909718   -2.319697   -0.286005
C      4.244691   -3.549084   -0.398545
C      4.938668   -4.821755   -0.012851
C      2.918172   -3.571187   -0.827476
C      2.239744   -2.392982   -1.156148
C      2.907723   -1.165278   -1.009894
N      2.491524    0.143156   -1.230334
C      1.200721    0.529225   -1.696540
C      1.187426    1.158465   -2.959679
C     -0.009558    1.487642   -3.575187
C     -1.202241    1.156368   -2.952731
C     -1.207219    0.528762   -1.688868
N     -2.494984    0.144434   -1.212353
C     -2.910647   -1.163699   -0.988605
C     -2.246782   -2.392655   -1.144715
C     -2.924150   -3.570106   -0.811280
C     -4.239177   -3.544580   -0.348403
C     -4.950005   -4.823943   -0.020284
C     -4.910421   -2.316941   -0.255737
C     -4.246921   -1.114035   -0.586774
C     -4.666863    0.247960   -0.640331
C     -5.894378    0.894293   -0.373860
C     -6.013719    2.283892   -0.527560
C     -7.331081    2.954254   -0.269976
C     -4.914940    3.021285   -0.968000
C     -3.687841    2.405706   -1.235661
C     -3.581896    1.009543   -1.073777
C     -0.000839    0.245371   -0.990329
P      0.003459   -0.335684    0.744512
O     -0.001690   -1.853226    0.808512
C      1.416799    0.340702    1.663647
C      2.207293   -0.533107    2.427684
C      3.291959   -0.057080    3.164099
C      3.596837    1.301106    3.154000
C      2.818346    2.182377    2.407329
C      1.733512    1.706629    1.667196
C     -1.398776    0.353269    1.670874
C     -1.704878    1.721631    1.671907
C     -2.781429    2.208322    2.416566
C     -3.563327    1.335515    3.169321
C     -3.268815   -0.024982    3.182797
C     -2.191391   -0.511722    2.442625
H      7.251765    3.437522    0.736330
H      7.526726    3.741588   -0.999239
H      8.147541    2.267143   -0.256017
H      4.989298    4.100253   -1.095476
H      2.829636    3.007758   -1.548701
H      6.740770    0.303820   -0.060023
H      5.945067   -2.285772    0.041991
H      4.569486   -5.663817   -0.607573
H      4.768020   -5.034178    1.046925
H      6.016981   -4.748696   -0.189967
H      2.384749   -4.516652   -0.906814
H      1.209271   -2.443434   -1.491886
H      2.115749    1.352458   -3.497205
H     -0.012913    1.950905   -4.558564
H     -2.133902    1.348484   -3.484943
H     -1.221713   -2.445061   -1.496785
H     -2.398270   -4.517935   -0.911552
H     -5.751262   -4.652856    0.705944
H     -4.259800   -5.549046    0.423625
H     -5.383613   -5.254708   -0.927826
H     -5.948465   -2.283055    0.063223
H     -6.746783    0.304882   -0.046600
H     -7.970539    2.873782   -1.154049
H     -7.840596    2.491865    0.581998
H     -7.195293    4.013732   -0.030281
H     -4.999361    4.098088   -1.099801
H     -2.838775    3.007186   -1.545162
H      1.982181   -1.598597    2.435156
H      3.901024   -0.749688    3.738609
H      4.447032    1.671194    3.719812
H      3.065956    3.240403    2.389228
H      1.156608    2.412794    1.079320
H     -1.126590    2.420902    1.077055
H     -3.020278    3.268272    2.397199
H     -4.406939    1.715173    3.738430
H     -3.880307   -0.711424    3.762454
H     -1.974551   -1.579233    2.452603
