  45
 
 O         -3.9266227425        2.1196350363        2.1958129401
 S         -3.6382694366        1.9935793112        0.7820605199
 O         -3.8422482694        3.1711962264       -0.0359022660
 C         -4.6069476764        0.6386650437        0.1117594008
 C         -5.2575077272       -0.2281476780        0.9678376244
 C         -5.9660869606       -1.2945140950        0.4372982614
 C         -6.0094063926       -1.4791695294       -0.9359821377
 C         -5.3519620879       -0.6010630720       -1.7848891371
 C         -4.6427207693        0.4662959704       -1.2590574766
 C         -1.9412003287        1.4469626898        0.5847084062
 C         -1.4614159865        0.4510689258        1.4162172550
 C         -0.1660671615       -0.0019475729        1.2581965500
 C          0.6457657823        0.5373231783        0.2573284247
 N          1.9557318062        0.0832639759        0.0985286835
 C          2.3551853149       -1.2416925414        0.0391390274
 C          1.5890394552       -2.3984561642        0.0443310497
 C          2.2472967418       -3.6098073430       -0.0617539089
 C          3.6336831210       -3.6769043380       -0.1812229207
 C          4.3987516974       -2.5277161663       -0.2156178939
 C          3.7592224465       -1.2990987241       -0.1104256260
 C          4.2261013339        0.0603197253       -0.1302408049
 C          5.4882148017        0.6328951143       -0.2233360106
 C          5.5954022278        2.0089499333       -0.1784431983
 C          4.4656747570        2.8098372329       -0.0267467418
 C          3.1993833617        2.2624697580        0.0666521479
 C          3.0830572672        0.8817249951       -0.0042324024
 C          0.1435779234        1.5369676462       -0.5779990595
 C         -1.1510627226        1.9911606982       -0.4101695265
 H         -5.2078703476       -0.0451627918        2.0300872723
 H         -6.4827213867       -1.9770082096        1.0946956413
 H         -6.5617456045       -2.3102414182       -1.3480504647
 H         -5.3924558142       -0.7461549487       -2.8535535080
 H         -4.1306266668        1.1742881349       -1.8915102903
 H         -2.0993711524        0.0619528182        2.1937693067
 H          0.2317367696       -0.7572521062        1.9180064293
 H          0.5129217718       -2.3593953001        0.1169407797
 H          1.6727652319       -4.5244733642       -0.0561023713
 H          4.1115090254       -4.6424566708       -0.2588322314
 H          5.4713967150       -2.5779606212       -0.3270682704
 H          6.3653152158        0.0111443208       -0.3215167811
 H          6.5671090865        2.4748537059       -0.2507375559
 H          4.5810788783        3.8826924998        0.0229868754
 H          2.3348182348        2.8936022848        0.2052566198
 H          0.7649484059        1.9403720681       -1.3624592369
 H         -1.5633741390        2.7673983613       -1.0357663949
