  62
 
 C          1.8563651201       -3.3220773070       -3.4518263760
 C          0.9995594927       -2.6118426108       -2.4486874800
 C          1.6035198164       -1.7873612215       -1.4907652855
 C          0.8088443204       -1.1143338842       -0.5813969700
 P          1.2462489820        0.1125735071        0.6752942656
 C          2.9331541317       -0.3687610602        1.1920993959
 C          3.1440440255       -1.6878134779        1.6108569140
 C          4.3569898109       -2.0579007859        2.1497159302
 C          5.3597605634       -1.1102893090        2.3258450375
 C          5.1371244630        0.2105542652        1.9589181705
 C          3.9262202515        0.5897571081        1.4162990223
 C          1.4017006659        1.7202293255       -0.1203332055
 C          1.5638901235        1.8260985269       -1.5092257278
 C          1.5568180613        3.0660277259       -2.1084059292
 C          1.3801028601        4.2175674794       -1.3500383591
 C          1.2085862178        4.1173986355        0.0272395684
 C          1.2077496130        2.8846547372        0.6379366345
 C         -0.5764462351       -1.2697396460       -0.5990311640
 P         -1.3041692071       -0.1764605454        0.6476768954
 C         -2.8568069719       -1.0208014027        1.1193041928
 C         -4.0513098073       -0.3138602043        1.2884028629
 C         -5.1623170173       -0.9547657963        1.7978968640
 C         -5.0889976156       -2.2856745485        2.1878100534
 C         -3.8892262362       -2.9790315691        2.0672242440
 C         -2.7745952601       -2.3468662336        1.5608511501
 C         -1.7826594073        1.3604204520       -0.1576743573
 C         -1.8966530452        2.5281867600        0.6116441134
 C         -2.1538313270        3.7358654437        0.0049139930
 C         -2.2831364212        3.8116659697       -1.3784561442
 C         -2.1573373727        2.6600692641       -2.1468608205
 C         -1.9052465636        1.4438242741       -1.5520022867
 C         -1.1805792091       -2.1018561181       -1.5212432344
 C         -0.3868644912       -2.7691493748       -2.4642593500
 C         -1.0413427517       -3.6511025375       -3.4832777920
 H          2.9070203834       -3.0950155963       -3.2898521892
 H          1.5881705454       -3.0230906478       -4.4650273232
 H          1.7182852165       -4.4005043901       -3.3792190081
 H          2.6799438162       -1.6861524686       -1.4576300219
 H          2.3540085152       -2.4154410166        1.4736122352
 H          4.5276902134       -3.0842535415        2.4422951061
 H          6.3056674493       -1.3990003771        2.7595194799
 H          5.9148803661        0.9476260076        2.1013846859
 H          3.7492925033        1.6156941499        1.1230705806
 H          1.6999585783        0.9304733508       -2.0998121621
 H          1.6895072396        3.1427772940       -3.1787670532
 H          1.3745287902        5.1857790492       -1.8278537373
 H          1.0734183596        5.0121396101        0.6184005484
 H          1.0724656594        2.7982552476        1.7081739771
 H         -4.1048925242        0.7209285658        0.9785928447
 H         -6.0934545155       -0.4148590372        1.8973361437
 H         -5.9591047482       -2.7780290313        2.5959735940
 H         -3.8302440338       -4.0127355066        2.3773085651
 H         -1.8338655139       -2.8746210896        1.4661075420
 H         -1.7916632780        2.4612819730        1.6867216758
 H         -2.2537576216        4.6299184059        0.6040800616
 H         -2.4792058587        4.7613731594       -1.8531439712
 H         -2.2572283559        2.7184650779       -3.2218911361
 H         -1.8049596802        0.5490045112       -2.1508462398
 H         -2.2529827333       -2.2425223633       -1.5125569526
 H         -2.1200299396       -3.6592899740       -3.3487808930
 H         -0.6729150292       -4.6732111055       -3.3991010082
 H         -0.8192731308       -3.3026908055       -4.4918166385
