  133
 
 C         -7.5562609460       -3.6069645318        3.4782678151
 C         -6.0960067277       -3.2744437619        3.8010211598
 C         -5.2571293571       -4.5382755555        3.5588626920
 C         -6.0156655034       -2.8735024811        5.2818581594
 C         -5.5509079921       -2.1385525291        2.9452984776
 C         -4.2220227511       -1.7309091559        3.1277260900
 C         -3.6419882800       -0.7123064649        2.3992175290
 C         -4.4152706261       -0.0737533216        1.4415930816
 C         -5.7616600214       -0.4504052606        1.2509411222
 C         -6.3188484283       -1.4800381740        1.9987641582
 C         -6.2883403804        0.4223315751        0.2374012887
 C         -7.5258517080        0.5278111688       -0.3783675868
 C         -7.7363600718        1.4849707226       -1.3625787887
 C         -9.1063538712        1.5798886423       -2.0226097763
 C         -9.4181319136        0.2473705859       -2.7207489741
 C         -9.1890551516        2.6946287289       -3.0701192787
 C        -10.1658352032        1.8616650094       -0.9464724546
 C         -6.6716638016        2.3182769626       -1.7191823812
 C         -5.4261961496        2.2347199168       -1.1235605531
 C         -5.2357792523        1.2906138831       -0.1283234115
 N         -4.1069540981        0.9800248965        0.6040189359
 C         -2.8637937480        1.6251322108        0.5129468944
 C         -2.8041476998        3.0207726982        0.6180579632
 C         -1.6079807975        3.7019404184        0.5200185333
 C         -0.4503763047        2.9638479787        0.3141739479
 C         -0.4951499781        1.5526555823        0.2470673962
 C         -1.7060808695        0.8816508993        0.3336626324
 C          0.8612972154        1.1070151627        0.0856726266
 C          1.4332545613       -0.1493573009       -0.0513229859
 C          2.8053941604       -0.2358613016       -0.2400276911
 N          3.4173620451       -1.4884537078       -0.3972413176
 C          3.0184223346       -2.4829474214       -1.2691793893
 C          1.9844131727       -2.5039042345       -2.1929269740
 C          1.8246527273       -3.6378288633       -2.9631867867
 C          2.6622154242       -4.7569010674       -2.8569681412
 C          2.3933997244       -5.9633599810       -3.7466101849
 C          2.4919446854       -5.5383772401       -5.2194323404
 C          3.3918389500       -7.1016501047       -3.5136183641
 C          0.9842039726       -6.5002476818       -3.4539036291
 C          3.7070698124       -4.7142091472       -1.9483056543
 C          3.8911456953       -3.5861346570       -1.1586117717
 C          4.8647371287       -3.2361167687       -0.1606767678
 C          5.9483066173       -3.9052658332        0.3868917257
 C          6.7109360012       -3.3037565288        1.3796101001
 C          7.9009578818       -4.0585322103        1.9586654650
 C          7.4086663197       -5.3758746247        2.5769017511
 C          8.6356565003       -3.2704535073        3.0476187868
 C          8.9010435835       -4.3568266233        0.8313417126
 C          6.3478530156       -2.0255769359        1.8148904734
 C          5.2729844694       -1.3340300243        1.2862764322
 C          4.5353946684       -1.9350261762        0.2797756952
 C          3.5897566187        0.9238057184       -0.2951761319
 C          3.0368765366        2.1782051798       -0.1374265394
 C          1.6672046203        2.2677540510        0.0702992164
 N          0.8634991993        3.3855041583        0.2101148965
 C          1.3039105986        4.7100161516        0.2516280361
 C          2.3693578176        5.0671027219        1.0813118843
 C          2.8031127349        6.3780304471        1.1227386603
 C          2.1682901849        7.3299894061        0.3454000053
 S          2.7571770853        9.0242177189        0.4105156265
 O          1.9374864678        9.8298755775       -0.4705587609
 O          2.8271076212        9.4393215479        1.7962584658
 C          4.4228801946        8.9400090482       -0.2539748694
 C          4.5843513072        8.5674859296       -1.5752614116
 C          5.8640339630        8.4839797032       -2.0988338990
 C          6.9591111702        8.7697751049       -1.2966285473
 C          6.7830319993        9.1405437419        0.0274440551
 C          5.5043770875        9.2246857258        0.5559692335
 C          1.1132060820        6.9928633376       -0.4808215572
 C          0.6794106798        5.6812258738       -0.5323777512
 H         -7.6669402514       -3.9175301879        2.4415901263
 H         -7.8894782558       -4.4267179863        4.1120359874
 H         -8.2034641628       -2.7532428202        3.6670362298
 H         -5.2935627929       -4.8179097445        2.5075268041
 H         -4.2173419832       -4.3839505563        3.8338872271
 H         -5.6461484692       -5.3649350384        4.1501000373
 H         -6.4238491815       -3.6648731709        5.9075428319
 H         -6.5885183423       -1.9646133817        5.4567915218
 H         -4.9891935951       -2.6925742034        5.5890036442
 H         -3.6150582580       -2.2248454462        3.8714960589
 H         -2.6192375274       -0.4179494281        2.5832387949
 H         -7.3497565683       -1.7418456747        1.8274776309
 H         -8.3145544194       -0.1470175319       -0.0826940212
 H        -10.3886613272        0.2976551154       -3.2105200503
 H         -8.6619668520        0.0313206923       -3.4732904837
 H         -9.4365375000       -0.5759003109       -2.0117924557
 H        -10.1909747826        2.7173992591       -3.4949405725
 H         -8.9917799361        3.6671239813       -2.6243586314
 H         -8.4855415162        2.5236328943       -3.8819380599
 H         -9.9394841794        2.7929061930       -0.4303427032
 H        -11.1500144324        1.9501126287       -1.4024630046
 H        -10.2039494170        1.0649542321       -0.2086900950
 H         -6.8044798383        3.0599293033       -2.4896286605
 H         -4.6254813976        2.8873600864       -1.4385980901
 H         -3.7185729476        3.5667714911        0.7941235257
 H         -1.5813796872        4.7755120915        0.6226479891
 H         -1.7515830493       -0.1936078852        0.2583126631
 H          0.8277145183       -1.0411622339       -0.0100190010
 H          1.3252724443       -1.6580328193       -2.3198382447
 H          1.0152167204       -3.6489834242       -3.6775263679
 H          3.4801451962       -5.1325760856       -5.4280464004
 H          1.7540826309       -4.7791936777       -5.4639302298
 H          2.3259278752       -6.3955178956       -5.8691047824
 H          3.1502075996       -7.9353614003       -4.1702643038
 H          4.4078448281       -6.7829891207       -3.7361655138
 H          3.3456480849       -7.4585863263       -2.4870666681
 H          0.9009583324       -6.7861723029       -2.4069290806
 H          0.2231147056       -5.7536068128       -3.6636213257
 H          0.7808366804       -7.3753163712       -4.0681267927
 H          4.3916230466       -5.5386234669       -1.8364392896
 H          6.1824300683       -4.8970052169        0.0311426867
 H          6.6799668897       -5.1745718163        3.3600870520
 H          6.9394012409       -6.0127726020        1.8320805142
 H          8.2433213399       -5.9210442516        3.0133819103
 H          9.0318128663       -2.3360925176        2.6561746077
 H          9.4720420979       -3.8602752824        3.4182025974
 H          7.9783073737       -3.0567747307        3.8875478395
 H          8.4499224374       -4.9657100754        0.0525664608
 H          9.2469062211       -3.4286969779        0.3798674601
 H          9.7631552362       -4.8913439442        1.2255825707
 H          6.9127817043       -1.5431977833        2.5955122664
 H          5.0157631612       -0.3549297563        1.6624290042
 H          4.6483603254        0.8250474523       -0.4811035038
 H          3.6554997998        3.0596800206       -0.1994667429
 H          2.8356705033        4.3188844164        1.7029560050
 H          3.6142545047        6.6776051587        1.7672467978
 H          3.7122834186        8.3614256414       -2.1759591535
 H          6.0063099463        8.1974708317       -3.1295635523
 H          7.9554464312        8.7053115490       -1.7073627116
 H          7.6369264912        9.3647373629        0.6483361877
 H          5.3246190455        9.5136160125        1.5801084546
 H          0.6498615880        7.7668759355       -1.0727863186
 H         -0.1296496870        5.4008489004       -1.1886447315
