  34
 
 C         -4.8806189227        1.2825822733       -0.0001297359
 C         -5.0582730942       -0.0931761667       -0.0000800726
 C         -3.9689808976       -0.9493339127        0.0000238133
 C         -2.6945975508       -0.4040665871        0.0000741538
 C         -2.5169672898        0.9881110340        0.0000367165
 C         -3.6062179790        1.8340707729       -0.0000663833
 C         -1.0539911537        1.3255064573        0.0001026066
 C         -0.4064705586       -0.0280341156        0.0001172845
 C         -1.3852028076       -1.0371358365        0.0001210140
 C         -1.0411965845       -2.3815251760        0.0001203355
 C          0.2998323087       -2.7401312425        0.0000764536
 C          1.2676494027       -1.7547344882        0.0000431667
 C          0.9285305187       -0.3876338922        0.0000870847
 C          2.1575154899        0.3917196623        0.0000461041
 C          2.3760374274        1.7611001467        0.0001056065
 C          3.6809061912        2.2278662527        0.0000320914
 C          4.7524335124        1.3475784648       -0.0001038265
 C          4.5406299261       -0.0245656891       -0.0001496245
 C          3.2450258046       -0.4970799907       -0.0000654853
 C          2.7598265418       -1.9168486559       -0.0000711586
 H         -5.7442478341        1.9322023869       -0.0002218540
 H         -6.0593377234       -0.5008344195       -0.0001291340
 H         -4.1131493066       -2.0199353418        0.0000556871
 H         -3.4750163891        2.9070416748       -0.0001054952
 H         -0.7760018121        1.9071150012       -0.8827078581
 H         -0.7760878807        1.9070859954        0.8829607096
 H         -1.8081521899       -3.1419651258        0.0001368339
 H          0.5831464562       -3.7832397000        0.0000542692
 H          1.5511311494        2.4563910298        0.0002096638
 H          3.8669452402        3.2926244028        0.0000777180
 H          5.7618475155        1.7334491950       -0.0001695868
 H          5.3782222185       -0.7078372559       -0.0002472563
 H          3.1073418746       -2.4631544637       -0.8808369802
 H          3.1074883964       -2.4632116900        0.8806001385
