  54
 
 N         -5.8959748685        1.8633179159        0.8281607703
 C         -4.9077809509        1.3077946263        0.5844774702
 C         -3.7154723849        0.6710105898        0.2853848176
 C         -2.4929517536        1.2902525459        0.5466399785
 C         -1.2905572695        0.6632334522        0.2978445904
 N         -0.0847331568        1.2648358325        0.6531812400
 C          0.9448845418        0.6644569929        1.3549319666
 C          0.9540691054       -0.5407776135        2.0457266957
 C          2.1229778782       -0.9073309889        2.6881287191
 C          3.2481980220       -0.0882308844        2.6649487617
 C          3.2237898014        1.1439705228        2.0297520260
 C          2.0626854410        1.5314285243        1.3820955500
 C          1.6663560906        2.7270635388        0.6834347812
 C          2.3152382783        3.9112101802        0.3765682089
 C          1.6279100310        4.8765666788       -0.3426307574
 C          0.3185969611        4.6615058940       -0.7683230687
 C         -0.3489378920        3.4870106679       -0.4749748824
 C          0.3268758145        2.5240649372        0.2673382191
 C         -1.2888529682       -0.6673460089       -0.2963536736
 N         -0.0815454890       -1.2653009481       -0.6527721679
 C          0.9455463406       -0.6617878440       -1.3555257658
 C          0.9503432048        0.5434347741       -2.0463713850
 C          2.1174894801        0.9135476432       -2.6899375309
 C          3.2452325683        0.0978910609       -2.6678440374
 C          3.2252328826       -1.1343502706       -2.0325802509
 C          2.0659534771       -1.5253480087       -1.3837632215
 C          1.6739441627       -2.7221753715       -0.6847228276
 C          2.3267470923       -3.9043218572       -0.3784349691
 C          1.6430669152       -4.8717471400        0.3414505818
 C          0.3335241154       -4.6606670380        0.7684310769
 C         -0.3378768526       -3.4882146753        0.4757214887
 C          0.3342537427       -2.5232652602       -0.2673211821
 C         -2.4895859466       -1.2979703517       -0.5440411784
 C         -3.7137131736       -0.6823641207       -0.2817137874
 C         -4.9044167072       -1.3226119765       -0.5798088371
 N         -5.8912273735       -1.8809448305       -0.8226770380
 H         -2.5001637432        2.2675243244        1.0085042560
 H          0.0743254269       -1.1632618083        2.1007856898
 H          2.1569545130       -1.8438542883        3.2232815722
 H          4.1456699885       -0.4101658065        3.1706056557
 H          4.0861595974        1.7918111588        2.0459385622
 H          3.3354321863        4.0746749968        0.6866511010
 H          2.1145175027        5.8087164582       -0.5862700041
 H         -0.1866275460        5.4257989730       -1.3389848351
 H         -1.3600459215        3.3267340724       -0.8172160096
 H          0.0686472350        1.1632273942       -2.1005949002
 H          2.1480788676        1.8501555085       -3.2251480524
 H          4.1412212729        0.4225578980       -3.1743928092
 H          4.0895671087       -1.7795458839       -2.0496158686
 H          3.3471573130       -4.0646622325       -0.6894379985
 H          2.1327587350       -5.8023970225        0.5846480658
 H         -0.1687945956       -5.4264694508        1.3396341848
 H         -1.3491113012       -3.3310090731        0.8190226322
 H         -2.4942984146       -2.2752640711       -1.0058898415
