  93
 
 C         -7.6792062279       -5.0726941693        0.1223910113
 C         -7.7285511121       -3.9913401098        0.9875800234
 C         -6.7756754119       -2.9924842927        0.9140755606
 C         -5.7583346305       -3.0604443667       -0.0372897173
 C         -4.7288665191       -2.0370008974       -0.1469461649
 N         -3.4930823028       -2.3503773732       -0.5764247050
 C         -2.7723099138       -1.2285590575       -0.5720561687
 C         -1.4219373621       -1.1727398213       -0.9755866563
 C         -0.6364766180       -2.3567788654       -0.8195512161
 C          0.7178562681       -2.3040194971       -0.8633123287
 C          1.4119444030       -1.0705199832       -1.0708951796
 C          2.7972804325       -0.9611115613       -0.7555174688
 C          3.3497585339        0.2504118882       -0.2697084438
 C          4.6733668009        0.3608808774        0.0577841182
 C          5.5430688748       -0.7344667814       -0.0784132307
 N          6.8903475701       -0.6180366612        0.2391526138
 C          7.5666772656        0.5838140738       -0.0017231495
 C          8.5295411408        1.0460885154        0.8971796500
 C          9.1968067268        2.2302608666        0.6514227911
 C          8.9139638773        2.9730419060       -0.4844944831
 C          7.9567918768        2.5193736580       -1.3788787282
 C          7.2875210976        1.3338739091       -1.1456361670
 C          7.5783881509       -1.6999703221        0.8011496326
 C          8.9013030082       -1.9606777267        0.4395589056
 C          9.5772110149       -3.0262530751        1.0012157800
 C          8.9485938386       -3.8497507859        1.9224042895
 C          7.6339743319       -3.5965783977        2.2824950698
 C          6.9506035001       -2.5301280373        1.7315432599
 C          5.0099198686       -1.9507315559       -0.5346569708
 C          3.6827903461       -2.0624647146       -0.8511043365
 C          0.6409153574        0.0305588467       -1.5906598131
 C          1.2465813584        1.1068276352       -2.2490371895
 C          0.4970792963        2.1176323997       -2.8307785924
 C         -0.8830598987        2.0424697881       -2.8260746480
 C         -1.5092261557        0.9658299217       -2.2177457478
 C         -0.7782524580       -0.0266609601       -1.5611142823
 N         -3.5413325355       -0.1701141758       -0.0919789210
 C         -3.0853265815        1.1195696919        0.2200914981
 C         -1.9116644149        1.2816291803        0.9522068088
 C         -1.4473629394        2.5480931548        1.2362825976
 C         -2.1488642344        3.6708221365        0.8134678253
 C         -3.3525832608        3.5089119469        0.1187990004
 C         -3.8057853049        2.2346730399       -0.1878413131
 O         -4.1104840525        4.5759834592       -0.2849095367
 C         -3.7430361046        5.7953341282        0.3330609520
 C         -2.2234238367        5.9478887698        0.3335872647
 O         -1.6303377349        4.9096236936        1.0896948430
 C         -4.7955332904       -0.6741004645        0.1690342936
 C         -5.8999839077        0.1181629160        0.6784326905
 C         -5.7423693561        0.9557069899        1.7852591223
 C         -6.8085949767        1.6976527985        2.2561768427
 C         -8.0447044743        1.6211256978        1.6341847590
 C         -8.2124076815        0.7879365042        0.5384026924
 C         -7.1525884604        0.0409527693        0.0634247902
 C         -5.7056488654       -4.1626172530       -0.8916797526
 C         -6.6599172639       -5.1582281651       -0.8130482915
 H         -8.4277605033       -5.8492641632        0.1825672754
 H         -8.5123498101       -3.9273616352        1.7287740557
 H         -6.8109067361       -2.1641053836        1.6058235454
 H         -1.1592453200       -3.2684353561       -0.5752445390
 H          1.2881229342       -3.1919417967       -0.6386265951
 H          2.6903579541        1.0874293079       -0.0949389556
 H          5.0566406877        1.2897190439        0.4554892902
 H          8.7425553359        0.4742526785        1.7884674975
 H          9.9373271276        2.5797321550        1.3558220384
 H          9.4364059050        3.8989130772       -0.6719843853
 H          7.7354542617        3.0887665468       -2.2697180493
 H          6.5524412501        0.9734900032       -1.8502693342
 H          9.3886143148       -1.3273353064       -0.2871466005
 H         10.5994453342       -3.2200237949        0.7113461381
 H          9.4801459162       -4.6823990568        2.3576153688
 H          7.1388497967       -4.2294837625        3.0042105164
 H          5.9311632275       -2.3245980302        2.0235076330
 H          5.6682480225       -2.7982748134       -0.6610336485
 H          3.3188489340       -2.9991661060       -1.2439695826
 H          2.3217834483        1.1316760005       -2.3419447469
 H          0.9971396502        2.9434541678       -3.3163588972
 H         -1.4774349333        2.8033457889       -3.3112721720
 H         -2.5830630371        0.8763250179       -2.2833726925
 H         -1.3638704511        0.4143423472        1.2862537403
 H         -0.5320128322        2.6938540034        1.7868519904
 H         -4.7213730822        2.1360971576       -0.7490219319
 H         -4.2228996135        6.5869733987       -0.2431920839
 H         -4.1111565664        5.8112804618        1.3675394583
 H         -1.8536333129        5.9107604753       -0.6998712829
 H         -1.9175700673        6.8829304556        0.8039749791
 H         -4.7857868337        1.0061891126        2.2852795209
 H         -6.6745654293        2.3363183838        3.1172981242
 H         -8.8742892329        2.2057841758        2.0029174110
 H         -9.1736424634        0.7228845644        0.0497967783
 H         -7.2794334399       -0.6045955782       -0.7937296579
 H         -4.9038895408       -4.2159128120       -1.6126216544
 H         -6.6108647854       -6.0039937306       -1.4838498331
