  68
 
 C          2.5622991969        5.7407391406       -1.2261554667
 C          3.0532696203        4.6453566676       -0.2760009741
 C          4.4627522358        4.2240775356       -0.7178824478
 C          3.1093463104        5.2343242881        1.1419509036
 C          2.1457202564        3.4293566487       -0.2702579439
 C          1.0075002684        3.3216596952       -1.0707651291
 C          0.1993762159        2.2103951883       -1.0151439120
 C          0.4985806824        1.1565324330       -0.1404615014
 C          1.6839277879        1.2117250465        0.6269804804
 C          2.4634455263        2.3422243623        0.5551882531
 C          1.9831500389        0.0088854155        1.4988643577
 C          1.0152414971        0.0040828041        2.7016743230
 C          3.4116210460        0.0160430938        2.0428183307
 C          1.6959545319       -1.1969118238        0.6270145935
 C          2.4867768155       -2.3195410529        0.5552177636
 C          2.1799374613       -3.4098136616       -0.2701735698
 C          3.0997070307       -4.6165808028       -0.2760342302
 C          3.1617836935       -5.2050531904        1.1418721687
 C          4.5048471154       -4.1810497906       -0.7179246519
 C          2.6198254750       -5.7167916229       -1.2262717151
 C          1.0405966111       -3.3136214996       -1.0705248659
 C          0.2213634452       -2.2105137187       -1.0148824589
 C          0.5100949399       -1.1536307846       -0.1403653629
 N         -0.2701115803       -0.0024153822       -0.0947340346
 C         -1.6390891997       -0.0092178503       -0.0768904074
 C         -2.3815429763       -1.2430557844       -0.0207374834
 C         -3.7270719487       -1.2475618834       -0.1825658956
 C         -4.4345185258       -0.0231319569       -0.3671939342
 C         -5.9064468381       -0.0304429849       -0.5042847872
 F         -6.3735883344       -1.1111131475       -1.1580967262
 F         -6.3842598018        1.0453356311       -1.1584603194
 F         -6.5651448073       -0.0334953248        0.6925288292
 C         -3.7392734350        1.2082980755       -0.1827786470
 C         -2.3937685303        1.2171905338       -0.0209452529
 H          1.5689683418        6.0842665120       -0.9472014572
 H          2.5429489581        5.3876565574       -2.2545177320
 H          3.2379662762        6.5921401909       -1.1774247109
 H          4.8937472027        3.4969139149       -0.0353581547
 H          4.4280296775        3.7808749207       -1.7108701100
 H          5.1188679880        5.0911458830       -0.7492275772
 H          2.1114504740        5.5159531232        1.4713361334
 H          3.7395517519        6.1208648813        1.1533564621
 H          3.5148089622        4.5209000797        1.8539302100
 H          0.7458767894        4.1048600399       -1.7622362460
 H         -0.6434459886        2.1177521744       -1.6830606943
 H          3.3543167415        2.3988337942        1.1574524916
 H          1.1806899326        0.8894962470        3.3117979025
 H         -0.0232108528       -0.0011116605        2.3813353337
 H          1.1895301147       -0.8796073732        3.3118300892
 H          4.1368559643        0.0196625112        1.2321473565
 H          3.5793031502       -0.8580170182        2.6670238411
 H          3.5705545125        0.8917478923        2.6670118027
 H          3.3781899308       -2.3671976166        1.1574593152
 H          3.5599726240       -4.4875983066        1.8539102829
 H          3.8009773160       -6.0851380863        1.1531978970
 H          2.1668080771       -5.4968515599        1.4712407592
 H          5.1696689150       -5.0414573299       -0.7494122200
 H          4.9285295930       -3.4496732682       -0.0353229341
 H          4.4656207989       -3.7380878124       -1.7108525820
 H          2.5968250053       -5.3638238706       -2.2546002047
 H          3.3041022830       -6.5612982485       -1.1776643591
 H          1.6300513972       -6.0704132905       -0.9472887974
 H          0.7867683549       -4.0994503863       -1.7619221706
 H         -0.6224205517       -2.1263779044       -1.6827185404
 H         -1.8614185928       -2.1613078472        0.1978445401
 H         -4.2869953551       -2.1686721378       -0.1397181752
 H         -4.3083204311        2.1238081604       -0.1401059799
 H         -1.8827998581        2.1406085576        0.1974623450
