  89
 
 C          9.5598414840        4.4935613010        1.4112156110
 C          8.1893068933        4.7006086687        1.3470058014
 C          7.3374764096        3.6704312146        1.0063589384
 C          7.8374646610        2.3927807008        0.7196174444
 C          6.9884374432        1.2740796229        0.3574369518
 C          5.6078145863        1.2850568399        0.4554227336
 C          4.8902135770        0.1444030031        0.0566530253
 C          3.4662963277        0.0275130718        0.0997058051
 C          2.6226688285        0.9889576923        0.6981719350
 C          1.2609418978        0.8267243928        0.7166827481
 C          0.6664781220       -0.3000813118        0.1354100044
 N         -0.7241196381       -0.4609730563        0.1615425989
 C         -1.3925048841       -1.5899912633        0.5890588547
 C         -0.8716338319       -2.7741228384        1.0939430691
 C         -1.7625107780       -3.7611730553        1.4730596991
 C         -3.1370793180       -3.5705446269        1.3633787859
 C         -3.6613124170       -2.3804606361        0.8882515712
 C         -2.7896044621       -1.3739202900        0.5015228022
 C         -2.9620917933       -0.0346061503       -0.0035425653
 C         -4.0366717144        0.7785516698       -0.3101951107
 C         -3.7942862563        2.0713390990       -0.8175824172
 C         -2.5015325176        2.5452346199       -1.0439483627
 C         -1.4177002401        1.7499510516       -0.7401487913
 C         -1.6490418768        0.4844285478       -0.2023905834
 C         -5.0641274950        2.7278851175       -1.0419631525
 C         -5.3672195290        3.9976012046       -1.5163021371
 C         -6.6974786507        4.3666835511       -1.6172279056
 C         -7.7110706230        3.4891944806       -1.2545708889
 C         -7.4162650321        2.2166927497       -0.7811188936
 C         -6.0939152045        1.8464762348       -0.6784890454
 C         -5.5187089349        0.5310712262       -0.1959238008
 C         -6.0606746595       -0.6152344889       -1.0181874295
 C         -5.8688448986       -0.8764438558       -2.3569074875
 C         -6.5093570567       -1.9761236792       -2.9135594849
 C         -7.3304161252       -2.7861042478       -2.1431335072
 C         -7.5277012294       -2.5245859185       -0.7963023282
 C         -6.8870401178       -1.4332273503       -0.2323427351
 C         -6.8684562332       -0.9313241333        1.1346396960
 C         -7.4853077113       -1.3937707581        2.2857605684
 C         -7.2518592614       -0.7253496595        3.4773643779
 C         -6.4197572007        0.3834616639        3.5212059383
 C         -5.8039763554        0.8576341328        2.3699321348
 C         -6.0309751921        0.1938862945        1.1845025338
 C          1.4864190055       -1.2659602387       -0.4632553549
 C          2.8462860784       -1.1069425442       -0.4756517843
 N          5.5974716572       -0.9325803493       -0.4020988984
 C          6.9071769574       -0.9117559654       -0.4507878039
 C          7.6180961267       -2.1061503561       -0.9140571557
 C          8.9956757901       -2.0695602097       -1.1170074870
 C          9.6666454719       -3.1990669255       -1.5457581739
 C          8.9705253090       -4.3755288624       -1.7761955921
 C          7.5991775803       -4.4191270051       -1.5766486688
 C          6.9249726051       -3.2916516260       -1.1484161926
 N          7.6131779533        0.1476695155       -0.0973330583
 C          9.2266622465        2.2019216613        0.7833983438
 C         10.0712693199        3.2358315324        1.1241831124
 H         10.2210135702        5.3046240495        1.6782883963
 H          7.7827469286        5.6789012730        1.5625227975
 H          6.2774533993        3.8669330722        0.9494742027
 H          5.0889798767        2.1510227254        0.8291523255
 H          3.0464714525        1.8586174804        1.1756803977
 H          0.6363035218        1.5563886355        1.2114164238
 H          0.1931302608       -2.9146299124        1.1976700460
 H         -1.3841034170       -4.6932617387        1.8653390367
 H         -3.8069281959       -4.3620731655        1.6643615218
 H         -4.7265557233       -2.2415860260        0.8252459049
 H         -2.3528457820        3.5298553696       -1.4591910946
 H         -0.4105116069        2.0902350557       -0.9237414504
 H         -4.5826669254        4.6834222659       -1.7987096734
 H         -6.9526655932        5.3508211631       -1.9826982960
 H         -8.7418863145        3.7996954116       -1.3412798000
 H         -8.2063470662        1.5357745725       -0.4995667378
 H         -5.2341109055       -0.2430245261       -2.9597215038
 H         -6.3684089778       -2.2011432328       -3.9606520760
 H         -7.8214522094       -3.6332522489       -2.5998575396
 H         -8.1665157356       -3.1595961708       -0.2005104050
 H         -8.1322221406       -2.2580609874        2.2574151653
 H         -7.7227521053       -1.0733078864        4.3854188559
 H         -6.2498650116        0.8863399411        4.4621022455
 H         -5.1607785039        1.7251472812        2.4049518629
 H          1.0333335495       -2.1220318199       -0.9416031768
 H          3.4803045914       -1.8411871041       -0.9482180648
 H          9.5222845135       -1.1446580500       -0.9360442291
 H         10.7351110746       -3.1637367070       -1.7013286431
 H          9.4964482162       -5.2580689655       -2.1096943883
 H          7.0562188089       -5.3359405667       -1.7546537063
 H          5.8582911885       -3.3106790047       -0.9836074539
 H          9.6180641981        1.2198207219        0.5646479003
 H         11.1376111667        3.0640081532        1.1685704877
