  132
 
 C        -11.5389130672       -4.2843001720        0.0363598814
 C        -11.0205302867       -3.2953499146        1.0910665933
 C        -11.1439699852       -3.9170729275        2.4903401192
 C        -11.9043462725       -2.0452598633        1.0468226341
 C         -9.5547683685       -2.9916295720        0.8119221240
 C         -8.6265635861       -4.0345215843        0.8308352992
 C         -7.2855489697       -3.7929471489        0.6192940009
 C         -6.8366323535       -2.5008996049        0.3670794075
 C         -7.7350631962       -1.4222216879        0.2891935039
 C         -9.0842572635       -1.7191899556        0.5398271977
 B         -7.1433176238       -0.0281035034       -0.0292440827
 C         -7.7768262889        1.3462310404       -0.3529586765
 C         -9.1328512675        1.5996775855       -0.6142782308
 C         -9.6417471485        2.8562065680       -0.8910967747
 C        -11.1145725651        3.1124539389       -1.1808168610
 C        -11.9565570884        1.8333806226       -1.1496863155
 C        -11.2482727762        3.7366183686       -2.5780397316
 C        -11.6735653337        4.0785073833       -0.1256409868
 C         -8.7472563108        3.9283189421       -0.9034968909
 C         -7.4008571336        3.7299367115       -0.6814821734
 C         -6.9127956283        2.4530527030       -0.4246519526
 O         -5.5488696150        2.3903780471       -0.2640988468
 C         -4.9074169314        1.2033136092       -0.1404962536
 C         -3.5192035187        1.2373706967       -0.1291522794
 C         -2.8181247933        0.0409301387       -0.0140077502
 N         -1.3923651750        0.0611679064       -0.0113238726
 C         -0.7179912147        0.2970242256       -1.1829433536
 C         -1.3949543770        0.5017206426       -2.3903645312
 C         -0.7021175070        0.7744895586       -3.5469679096
 C          0.6955483284        0.8569397789       -3.5291118324
 C          1.3876458293        0.6312025895       -2.3623244994
 C          0.7095301969        0.3263552366       -1.1765026855
 N          1.3849194749        0.0596646196       -0.0124585202
 C          2.8103972149        0.0355153659       -0.0195749629
 C          3.5156054509        1.0846980422        0.5616032961
 C          4.9037874554        1.0490895241        0.5481649226
 C          5.6107353053       -0.0183289129       -0.0320639837
 C          4.8581078600       -1.0573563371       -0.6063308322
 C          3.4696827537       -1.0393165908       -0.6078290636
 O          5.4565053979       -2.1225909557       -1.1913370044
 C          6.8188456851       -2.2967231828       -1.1397226128
 C          7.2625864159       -3.4941623597       -1.6910182593
 C          8.6034851950       -3.8146843011       -1.6713522153
 C          9.5364056114       -2.9568722468       -1.0854895671
 C         11.0030061701       -3.3646899031       -1.0505354882
 C         11.8914744821       -2.3266958753       -0.3583773355
 C         11.1364263941       -4.6906256274       -0.2865198086
 C         11.5074440506       -3.5412402315       -2.4905356595
 C          9.0703819123       -1.7643559737       -0.5610236169
 C          7.7216673123       -1.3743425792       -0.5821792006
 B          7.1363924956       -0.0483865974       -0.0379659004
 C          7.7774714877        1.2529230806        0.5025969306
 C          9.1405651331        1.5884765105        0.4727705373
 C          9.6578083667        2.7598864116        0.9967522973
 C         11.1397961393        3.1069133997        0.9548977158
 C         11.3244419404        4.4310234717        0.1984539106
 C         11.6591538928        3.2529543675        2.3930305562
 C         11.9802702360        2.0372542079        0.2510350287
 C          8.7639975919        3.6533464894        1.5902355094
 C          7.4113008263        3.3874001498        1.6176783942
 C          6.9159995113        2.2098962058        1.0673113031
 O          5.5481214114        2.0901348113        1.1280107254
 C          0.7106576384       -0.1954802670        1.1550832279
 C          1.3881337407       -0.4956809530        2.3420620845
 C          0.6957444290       -0.7138687459        3.5104129946
 C         -0.7018534816       -0.6308123281        3.5277453017
 C         -1.3943452564       -0.3644760443        2.3697339991
 C         -0.7168589557       -0.1647784097        1.1613798746
 C         -3.4817732336       -1.1770562846        0.0973672781
 C         -4.8702793751       -1.1874862707        0.0985762358
 C         -5.6179619904       -0.0036921825       -0.0236474216
 O         -5.4742276226       -2.3945507728        0.2173337102
 H        -12.5885912441       -4.5082290335        0.2162131151
 H        -11.4424484414       -3.8566066637       -0.9597952808
 H        -10.9828832777       -5.2175846542        0.0608739167
 H        -10.7471246638       -3.2357013691        3.2407044024
 H        -10.5967690895       -4.8533940406        2.5579083630
 H        -12.1885933351       -4.1159773257        2.7218090996
 H        -11.5922412900       -1.3197617244        1.7947754960
 H        -11.8762945363       -1.5819628963        0.0635610476
 H        -12.9355079389       -2.3230895423        1.2571572201
 H         -8.9420595458       -5.0480645815        1.0260652490
 H         -6.5631339352       -4.5953593745        0.6562205577
 H         -9.7707213207       -0.8914804413        0.5337786175
 H         -9.7924265506        0.7503697323       -0.6127703775
 H        -11.6132237138        1.1218309958       -1.8973997426
 H        -12.9943829623        2.0775274435       -1.3689149980
 H        -11.9225556022        1.3671406170       -0.1680218940
 H        -10.8218673787        3.0731803496       -3.3282312419
 H        -12.2973130730        3.9000138742       -2.8171687314
 H        -10.7338383823        4.6918961574       -2.6368469736
 H        -12.7279458990        4.2708082535       -0.3144032619
 H        -11.5733796598        3.6481825561        0.8689994772
 H        -11.1464409724        5.0286570242       -0.1395670026
 H         -9.0936870277        4.9311487176       -1.1016528334
 H         -6.7040211747        4.5548584919       -0.7135243982
 H         -3.0009786048        2.1793950270       -0.2122810012
 H         -2.4712189287        0.4450426802       -2.4021341685
 H         -1.2395886614        0.9310548895       -4.4683660614
 H          1.2332036121        1.0911927290       -4.4337799133
 H          2.4640645146        0.6856508475       -2.3487707674
 H          3.0003913667        1.9180111738        1.0121948635
 H          2.9190235752       -1.8517496614       -1.0546434219
 H          6.5357660981       -4.1667076971       -2.1228679482
 H          8.9151288276       -4.7513735324       -2.1076804112
 H         11.8626193087       -1.3752034218       -0.8837606075
 H         12.9221128464       -2.6766464293       -0.3551227091
 H         11.5843588813       -2.1764478052        0.6742085212
 H         10.5769007982       -5.4862632788       -0.7708095643
 H         12.1812020974       -4.9911420999       -0.2363737629
 H         10.7598615520       -4.5786400952        0.7286073217
 H         11.3979854113       -2.6102886825       -3.0436912698
 H         12.5592975331       -3.8204264955       -2.4881308562
 H         10.9511517595       -4.3147203333       -3.0131135774
 H          9.7621882202       -1.0894546286       -0.0900828548
 H          9.8013908843        0.8872223344       -0.0040822057
 H         12.3807804488        4.6867518413        0.1426793916
 H         10.8032025769        5.2467318298        0.6919801975
 H         10.9363713867        4.3421703825       -0.8146294764
 H         11.5139265623        2.3238429864        2.9410168973
 H         11.1385160153        4.0456313687        2.9235501918
 H         12.7217066701        3.4879297352        2.3862674592
 H         11.9151894369        1.0845442788        0.7709320566
 H         11.6609615405        1.9061729107       -0.7804802654
 H         13.0244883967        2.3442360388        0.2434237619
 H          9.1160568705        4.5755264488        2.0267321624
 H          6.7152352690        4.0881919206        2.0553266955
 H          2.4644597630       -0.5517552778        2.3293978817
 H          1.2334148310       -0.9429477951        4.4163796758
 H         -1.2393266420       -0.7820135697        4.4500543508
 H         -2.4706711114       -0.3080473063        2.3804024920
 H         -2.9344505991       -2.1021199161        0.1843477540
