  83
 
 C          7.3813963882        3.6398834254        0.6481952518
 C          6.0216098931        3.8305121690        0.7839636481
 C          5.1614193252        2.7434359550        0.8210872844
 C          5.6506999201        1.4463002467        0.7341192307
 C          7.0296877582        1.2649553251        0.5639033415
 C          7.8828255947        2.3515992193        0.5288736079
 O          7.5946282729        0.0226627157        0.4125135723
 C          6.7508192543       -1.0610601313        0.4116230801
 C          7.3306474809       -2.3036541332        0.2392777364
 C          6.5492720331       -3.4500253822        0.2549400475
 C          5.1890171209       -3.3417235102        0.4581090574
 C          4.6017643037       -2.0973023804        0.6308853150
 C          5.3662537005       -0.9379447675        0.5926420080
 N          4.8116567898        0.3317649955        0.7681573545
 C          3.4294607851        0.4823174192        1.0107937590
 C          2.9937042167        0.9949999521        2.2315906156
 C          1.6447324502        1.1357026143        2.5029687141
 C          0.7258936228        0.7446731877        1.5415553019
 C          1.1696520301        0.2315174658        0.3128627201
 C          2.5095685371        0.1037879022        0.0327375996
 C         -0.0000538898       -0.1388424383       -0.5634471613
 C         -0.0002641978        0.5495405940       -1.9067679606
 C         -0.0004674308        1.9008157497       -2.1728542726
 C         -0.0006447524        2.3120431605       -3.4991651075
 C         -0.0006176471        1.3844408881       -4.5299470513
 C         -0.0004142377        0.0241854469       -4.2647953819
 C         -0.0002375147       -0.3937785087       -2.9443297514
 C         -0.0000119710       -1.7253161047       -2.3580866863
 C          0.0001127596       -2.9820971301       -2.9400927184
 C          0.0003398949       -4.0954370379       -2.1148638229
 C          0.0004398439       -3.9604978615       -0.7347804034
 C          0.0003145921       -2.7039461647       -0.1437883332
 C          0.0000883763       -1.5961527268       -0.9621186112
 C         -1.1696670442        0.2312713570        0.3130908985
 C         -2.5096082364        0.1033802390        0.0331649938
 C         -3.4294007754        0.4818077494        1.0113547525
 N         -4.8116220961        0.3312681195        0.7688540054
 C         -5.6506227877        1.4458359966        0.7347603448
 C         -5.1613150080        2.7429556013        0.8218176199
 C         -6.0214703283        3.8300582810        0.7846460623
 C         -7.3812487776        3.6394749021        0.6487377199
 C         -7.8827026645        2.3512087594        0.5293260609
 C         -7.0296004488        1.2645384153        0.5644075756
 O         -7.5945663055        0.0222683574        0.4129251266
 C         -6.7507810917       -1.0614730340        0.4119826300
 C         -7.3306166053       -2.3040356695        0.2394393740
 C         -6.5492627406       -3.4504228288        0.2550436444
 C         -5.1890246324       -3.3421710102        0.4583536232
 C         -4.6017636216       -2.0977805445        0.6313235082
 C         -5.3662292449       -0.9384057777        0.5931376366
 C         -2.9935216276        0.9944640125        2.2321182430
 C         -1.6445251792        1.1353307995        2.5032981084
 C         -0.7257834075        0.7444772431        1.5417227589
 H          8.0554192807        4.4815305843        0.6235384438
 H          5.6145971053        4.8272414205        0.8592202201
 H          4.0985689496        2.9045914453        0.9124456610
 H          8.9381235925        2.1688660645        0.4037414803
 H          8.3987833431       -2.3533443267        0.1000372781
 H          7.0108420737       -4.4151420301        0.1178453034
 H          4.5681758500       -4.2240058402        0.4876410458
 H          3.5390297200       -2.0316663828        0.8037691926
 H          3.7289452648        1.2776288758        2.9707137716
 H          1.3177847898        1.5300418405        3.4531315626
 H          2.8501382108       -0.2828641049       -0.9165606193
 H         -0.0004893565        2.6227716252       -1.3690127995
 H         -0.0008068126        3.3669523646       -3.7303003158
 H         -0.0007587298        1.7282234172       -5.5539872970
 H         -0.0003955496       -0.6937447479       -5.0713422316
 H          0.0000382397       -3.0932596631       -4.0141149973
 H          0.0004425872       -5.0831770249       -2.5520661447
 H          0.0006190674       -4.8427433468       -0.1118521755
 H          0.0003945406       -2.5973792146        0.9317926839
 H         -2.8502722414       -0.2832704610       -0.9161001344
 H         -4.0984699944        2.9040830083        0.9132826518
 H         -5.6144343547        4.8267726823        0.8599748081
 H         -8.0552442342        4.4811428097        0.6240395973
 H         -8.9379931617        2.1685100544        0.4040804447
 H         -8.3987399959       -2.3536904323        0.1000905583
 H         -7.0108379630       -4.4155149321        0.1177935881
 H         -4.5682050759       -4.2244699273        0.4878450657
 H         -3.5390438273       -2.0321768914        0.8043134693
 H         -3.7286875320        1.2769903350        2.9713551055
 H         -1.3174854663        1.5296946753        3.4534191124
