  54
 
 C         -0.4569223149        2.6244967159        1.0964982848
 C          0.4355120038        0.1235775180       -0.0117946537
 C         -2.3621150669        2.9489096137       -0.8143868437
 C          1.3506336248       -0.2388766665       -1.1211456666
 C          2.5187207333        1.2681132435        0.2619236385
 N          3.9445567379        0.8688241600        0.2834715274
 C          4.0864909458       -1.0715561342       -0.7132083707
 C          2.9994047715       -2.0286610126       -1.0154958105
 C          1.7025863811       -1.6159909328       -1.0950360226
 N          0.6379058607       -2.4990457104       -0.9539443310
 C         -0.6307459135       -2.0936608843       -0.6031491870
 C         -1.6992652104       -2.8540829762       -0.8764583995
 C         -3.4108022081       -2.1251128618        0.8435341664
 N         -3.5178262637       -0.8441565275        1.5203210315
 C         -2.4623997328        0.1366421968        1.1473864618
 C         -0.7556409104       -0.7926787681        0.1361971747
 O         -1.8969714917        4.2721201233       -0.7957038350
 S         -0.8156876719        1.7007443576       -0.5248066233
 O          0.2049435771        3.7936437421        0.8621114374
 C          1.4982694057        0.4076952549        0.9849700423
 C          1.9826844866       -0.5631881628        1.8947587720
 C          3.2744866441       -0.9713753558        1.8357620816
 C          4.1937779583       -0.5006836247        0.7822224481
 C          3.8522736394        0.3867371828       -1.1191868307
 C          2.3899034233        0.8281781575       -1.2130316476
 C         -1.9121790806        0.1953957375       -0.2828456843
 C         -1.3476268555       -0.8171498296        1.5665275649
 C         -2.4516268264       -1.8121898247        1.9153549820
 C         -3.1181745239       -2.4249746996       -0.6171322997
 C         -3.4073217789       -1.2687625435       -1.5390145275
 C         -2.8314091161       -0.0829472322       -1.4017418776
 H          0.1988781288        1.9542403764        1.6617015091
 H         -0.4143333254        4.4150694347        0.4371631241
 H         -1.4209321552        2.7678815281        1.5892360174
 H         -1.4045903874        4.4352541931       -1.6082838804
 H         -2.8048782659        2.7031909110       -1.7787070579
 H         -3.1003244711        2.8411659346       -0.0233225696
 H          2.4208245345        2.3296521470        0.5004448116
 H          5.0527014271       -1.4622715313       -1.0368128724
 H          3.2219030104       -3.0826374901       -0.9307115882
 H          0.7666418308       -3.4601889818       -1.2274485694
 H         -1.5614181873       -3.7886066113       -1.4001726303
 H         -4.2262782694       -2.7395237003        1.2217756371
 H         -2.6814865988        1.0740574610        1.6508553632
 H          1.3139514420       -1.0440358154        2.5960918117
 H          3.6458893708       -1.7152273130        2.5240035718
 H          5.2317564999       -0.5677518985        1.1231231470
 H          4.5447188199        0.8210075333       -1.8391403733
 H          2.1705824871        1.5877359331       -1.9622203946
 H         -0.6779523212       -0.5873037105        2.3859513737
 H         -2.4763625607       -2.3280195568        2.8643613787
 H         -3.7747622009       -3.2538777032       -0.8931430745
 H         -4.0627610919       -1.4587618776       -2.3755399407
 H         -3.0074168242        0.6977051740       -2.1230310039
