  71
 
 C          0.8024987918        3.3316330394        1.9285619502
 C          0.2360542135        4.4757667837        1.3784965778
 N         -0.7930935520        4.4169943911        0.5362608856
 C         -1.3063317182        3.2519729076        0.2311338519
 C         -0.8370467430        2.0184437585        0.7315487601
 C         -1.4406347849        0.7683508834        0.3535406298
 C         -2.8173824868        0.7083564369        0.1579005268
 C         -3.4967485772       -0.4944339842        0.0818490318
 N         -4.8768133544       -0.5236481673       -0.0885934324
 C         -5.5895694102        0.2201892547       -1.0107781070
 C         -5.1282906816        1.0879556977       -1.9915492424
 C         -6.0623105853        1.6878636484       -2.8158859010
 C         -7.4243801839        1.4272994680       -2.6802344109
 C         -7.8877839065        0.5394822891       -1.7266182898
 C         -6.9685774626       -0.0745685728       -0.8880943665
 C         -7.0859124261       -1.0420087855        0.1693756359
 C         -8.1648721459       -1.6875415853        0.7556032696
 C         -7.9264628838       -2.5581609421        1.8033922163
 C         -6.6341623763       -2.7706865904        2.2784422319
 C         -5.5436622044       -2.1372997664        1.7111072293
 C         -5.7718947051       -1.2887867159        0.6356769691
 C         -2.7675539427       -1.7129110608        0.2138624007
 C         -1.4142367512       -1.6834020543        0.3432405818
 C         -0.6741225038       -0.4723408807        0.3263863733
 C          0.7366766655       -0.4930057234        0.1864669565
 C          1.5280864199       -1.5775994094        0.6612706872
 C          2.8876553564       -1.5835405826        0.5448882698
 C          3.5640735279       -0.5126775294       -0.0740111423
 N          4.9492691830       -0.5188128485       -0.1844718824
 C          5.7898158174        0.5422301963        0.1006003429
 C          5.4865759602        1.8007797231        0.6025903779
 C          6.5328305537        2.6744202850        0.8350647319
 C          7.8540517032        2.3085628998        0.5861181467
 C          8.1656968349        1.0464173584        0.1151885512
 C          7.1320059939        0.1525884792       -0.1251106071
 C          7.0905943190       -1.2122914616       -0.5750001328
 C          8.0668901428       -2.1166983569       -0.9674426844
 C          7.6743933196       -3.3745914546       -1.3866411456
 C          6.3267658288       -3.7248103797       -1.4372494026
 C          5.3365376563       -2.8400025820       -1.0518044677
 C          5.7255696367       -1.5871129621       -0.5964255102
 C          2.8044251140        0.5536595604       -0.5829320567
 C          1.4440597176        0.5667747108       -0.4586946058
 C          0.2678794992        2.1024229198        1.6126482311
 H          1.6336790099        3.4144819430        2.6130626822
 H          0.6012071192        5.4663238226        1.6100442589
 H         -2.1103592067        3.2806416434       -0.4937119895
 H         -3.3926272096        1.6228376681        0.1781303603
 H         -4.0736398066        1.2785578559       -2.1183297709
 H         -5.7280660460        2.3699833831       -3.5836567832
 H         -8.1242814904        1.9189141131       -3.3396113016
 H         -8.9415833618        0.3228834991       -1.6371720119
 H         -9.1691191226       -1.5068786256        0.4030286191
 H         -8.7527368564       -3.0722036811        2.2717757878
 H         -6.4807640980       -3.4390446080        3.1128511191
 H         -4.5507237748       -2.2883644682        2.1053858211
 H         -3.2961110150       -2.6502450517        0.1365886735
 H         -0.8757871296       -2.6184733838        0.3607019307
 H          1.0478636958       -2.3858972406        1.1909220323
 H          3.4656827842       -2.3892692076        0.9729790100
 H          4.4690509458        2.0880720145        0.8171585971
 H          6.3208591891        3.6602443316        1.2220318711
 H          8.6441458501        3.0197243706        0.7766632014
 H          9.1913691524        0.7572396767       -0.0573951333
 H          9.1098664786       -1.8386113392       -0.9507903801
 H          8.4192912431       -4.0939493725       -1.6932192792
 H          6.0483769331       -4.7063988520       -1.7914590777
 H          4.2949852405       -3.1133135215       -1.1205871956
 H          3.3055858487        1.3464756242       -1.1191338219
 H          0.8814991035        1.3583324126       -0.9287528850
 H          0.6516663532        1.2057742395        2.0763219469
