  70
 
 C         -8.3762290719        2.5613377602        0.6087395967
 C         -8.3659841776        1.3341044403        1.2506326227
 C         -7.3271693762        0.4461341817        1.0418722771
 C         -6.2913552810        0.7799053038        0.1740507240
 N         -5.2407683763       -0.1210136465       -0.0485187250
 C         -5.3764796505       -1.4519683271       -0.3904573157
 C         -6.5262198778       -2.1907574668       -0.6309855630
 C         -6.3777211761       -3.5170519221       -0.9883670945
 C         -5.1189548373       -4.1009588351       -1.1144273258
 C         -3.9709527484       -3.3650712095       -0.9007695864
 C         -4.0947724898       -2.0296749480       -0.5407636261
 C         -3.1440313851       -0.9883512655       -0.2702043784
 C         -1.7573127120       -0.9482804798       -0.2460513834
 C         -1.1265570900        0.2414921121        0.0805094726
 C          0.3537213946        0.3135819919        0.1041216087
 C          1.0507339134        0.6639894146       -1.0585525668
 C          0.3750631944        0.9682275578       -2.2693801039
 C          1.0634435085        1.3083718106       -3.3925836107
 C          2.4722394114        1.3643764967       -3.3754080245
 C          3.1580366478        1.0780877556       -2.2356940319
 C          2.4788405271        0.7197084948       -1.0416557504
 C          3.1718180955        0.4219339177        0.1377927850
 C          4.6524486453        0.4667821357        0.1510354309
 C          5.3118267267        1.6695094861        0.4792785277
 C          6.6755084531        1.7332417780        0.4942202337
 C          7.4569930404        0.6006230832        0.1824231898
 C          8.8667412760        0.6338891479        0.1873567057
 C          9.5926083330       -0.4824400826       -0.1203076040
 C          8.9422480803       -1.6831368515       -0.4466570979
 C          7.5774614582       -1.7477614868       -0.4602186695
 C          6.7993498289       -0.6132864629       -0.1478664710
 C          5.3906395457       -0.6479400560       -0.1546715864
 C          2.4753483752        0.0804016468        1.3031729217
 C          3.1510731501       -0.2178130803        2.5155673083
 C          2.4618773960       -0.5491254188        3.6409552067
 C          1.0530296372       -0.6044521592        3.6236388028
 C          0.3678118354       -0.3265521780        2.4815249313
 C          1.0471402782        0.0252015098        1.2857198838
 C         -1.8821985131        1.3753995014        0.3967684877
 C         -3.2628294780        1.3577085714        0.3787680891
 C         -3.8936342547        0.1732993545        0.0257417648
 C         -6.3052789723        2.0119789279       -0.4735055646
 C         -7.3427430618        2.8978102558       -0.2496736699
 H         -9.1873010107        3.2535655181        0.7770331445
 H         -9.1674989034        1.0694228962        1.9243815859
 H         -7.3043861606       -0.5023269511        1.5575573408
 H         -7.5058151320       -1.7434385544       -0.5540586411
 H         -7.2578398801       -4.1137754828       -1.1779803813
 H         -5.0458187179       -5.1417720031       -1.3927700447
 H         -2.9946019016       -3.8116340158       -1.0141336207
 H         -1.1750277210       -1.8286403439       -0.4739532177
 H         -0.7042870038        0.9236546878       -2.2785220932
 H          0.5371612906        1.5383424217       -4.3076056238
 H          3.0011171391        1.6367214289       -4.2771797359
 H          4.2375718546        1.1197306293       -2.2199513434
 H          4.7157007473        2.5387038973        0.7180507125
 H          7.1776715841        2.6568989250        0.7459240930
 H          9.3627060519        1.5608009873        0.4393181437
 H         10.6724439807       -0.4499768218       -0.1149151170
 H          9.5320239868       -2.5558218298       -0.6871503029
 H          7.0715094180       -2.6694905177       -0.7108318759
 H          4.8901272464       -1.5726486798       -0.4069117050
 H          4.2306476692       -0.1750490986        2.5258419006
 H          2.9880376668       -0.7728837259        4.5575610899
 H          0.5239876688       -0.8700082477        4.5273441198
 H         -0.7115719227       -0.3679662107        2.4641323843
 H         -1.3635544079        2.2846611094        0.6641522547
 H         -3.8294015919        2.2379832106        0.6427217445
 H         -5.5097856393        2.2614220160       -1.1597829759
 H         -7.3486295337        3.8520589961       -0.7554416566
