  70
 
 C          6.3342480417       -0.4087909046        0.3143858707
 C          4.9429754358       -0.2236708386        0.9539480776
 C          5.0699670605       -0.2275142376        2.4909478505
 C          4.0713421501       -1.3820736684        0.5351462964
 C          4.4212977208       -2.6755747093        0.8530117379
 C          3.6641371012       -3.7730828847        0.4535921115
 C          2.5092414609       -3.5673361935       -0.3269472711
 C          2.1256160307       -2.3022905188       -0.6560346662
 C          2.8701115234       -1.1737782032       -0.2199584617
 N          2.4442725893        0.0884697991       -0.5200578950
 C          1.2070600649        0.2424790030       -1.2053758463
 C          1.1993609645        0.5268631567       -2.5878296692
 C         -0.0080427918        0.6651979647       -3.2419651323
 C         -1.2070790967        0.5327186404       -2.5631582211
 C         -1.1908730034        0.2502115228       -1.1810945934
 N         -2.4170657546        0.1098899278       -0.4726548208
 C         -3.0620119770        1.2447256010       -0.0206338016
 C         -2.4873625449        2.5004643382       -0.2495153429
 C         -3.1076725047        3.6523610079        0.1818738392
 C         -4.3148806563        3.5740856500        0.8550649177
 C         -4.8804488269        2.3346305932        1.0915800256
 C         -4.2779999700        1.1577723582        0.6690844614
 C         -4.9409495586       -0.1726507502        0.9667034546
 C         -6.3304579133       -0.1917239182        0.3030630532
 C         -5.0781201445       -0.3236416170        2.4931196406
 C         -4.1336104488       -1.3391209663        0.4321841899
 C         -4.5939967849       -2.6350568440        0.6190186026
 C         -3.9052434459       -3.7346318712        0.1410943334
 C         -2.7230759089       -3.5453255447       -0.5542869171
 C         -2.2430326918       -2.2700782524       -0.7546730455
 C         -2.9303800980       -1.1551880111       -0.2611886038
 C          0.0117334598        0.1071209698       -0.5130615091
 C          3.1427192315        1.2116519910       -0.1766462803
 C          2.6299827382        2.4961648814       -0.4946501348
 C          3.3252788556        3.6268738766       -0.1830613519
 C          4.5659642936        3.5319593142        0.4753144222
 C          5.0590632127        2.2786732599        0.8225605967
 C          4.3869436680        1.1125723562        0.5260562377
 H          6.2461256650       -0.4010110899       -0.7701691732
 H          6.7737163568       -1.3548874013        0.6171556357
 H          7.0051448976        0.3921389148        0.6115039996
 H          4.0881241407       -0.1022534004        2.9431120156
 H          5.7094290284        0.5837981343        2.8266756234
 H          5.4933516794       -1.1646668293        2.8406536989
 H          5.3170141795       -2.8604429644        1.4276150533
 H          3.9675977731       -4.7713049169        0.7241628360
 H          1.9338681320       -4.4153047548       -0.6656791759
 H          1.2499546762       -2.1422514845       -1.2651742322
 H          2.1370944886        0.6260571117       -3.1109592045
 H         -0.0170249940        0.8789994120       -4.3007363002
 H         -2.1528440359        0.6394261549       -3.0694954089
 H         -1.5449800727        2.5626819715       -0.7707824918
 H         -2.6474559539        4.6107050136       -0.0066254890
 H         -4.8112855219        4.4695249774        1.1967040318
 H         -5.8193836989        2.2899206201        1.6225267478
 H         -6.9468778855        0.6239871548        0.6705214030
 H         -6.2266608512       -0.0852832467       -0.7751592129
 H         -6.8450325380       -1.1265287066        0.5073447211
 H         -5.5637491181       -1.2614350326        2.7480747565
 H         -4.0931769937       -0.3096616480        2.9561141976
 H         -5.6655558116        0.4885714853        2.9120676375
 H         -5.5186124629       -2.7984823236        1.1518489105
 H         -4.2912757231       -4.7289182751        0.3062365597
 H         -2.1748108749       -4.3906017418       -0.9423435232
 H         -1.3265752120       -2.1237899929       -1.3041554377
 H          0.0219700927       -0.1129513851        0.5449464873
 H          1.6748424200        2.5675077435       -0.9908397929
 H          2.9252927587        4.5971076076       -0.4351495601
 H          5.1214202407        4.4225472541        0.7208990074
 H          6.0024260745        2.2323550263        1.3464481285
