  68
 
 C          2.0367428608        3.9701035305        2.7482960705
 C          1.1978200975        3.2626236969        1.8905166502
 C          1.6583908927        2.1846315597        1.1616195291
 C          2.9868145436        1.7944630619        1.3064447143
 C          3.8297288234        2.5528318473        2.1482405397
 C          3.3716206461        3.6323475254        2.8815186730
 O          5.1109402964        2.0995412212        2.1121669384
 C          5.1253236915        1.0517116890        1.2436204712
 C          6.2740545367        0.3667102881        0.8690455721
 C          6.1545630744       -0.6341956509       -0.0765511608
 C          4.9001315486       -0.9593002151       -0.5795656615
 C          4.4887386689       -1.9414815220       -1.5471470350
 C          5.1751134404       -2.8556280813       -2.3336036598
 C          4.4498446430       -3.6725314758       -3.1830044739
 C          3.0621489343       -3.5843647595       -3.2552426840
 C          2.3576528375       -2.6825073420       -2.4770520122
 C          3.0828680574       -1.8586521803       -1.6313465115
 N          2.6273561816       -0.8712323294       -0.7653713218
 C          1.2956304295       -0.7817751532       -0.3791723181
 C          0.9352495001       -0.8244371615        0.9489365858
 N         -0.3373867954       -0.7611314654        1.3539730915
 C         -1.2978124210       -0.7762980792        0.3863251226
 N         -2.6296320054       -0.8602542668        0.7735674688
 C         -3.0864344053       -1.8401578840        1.6472887151
 C         -2.3619987085       -2.6612686937        2.4963420279
 C         -3.0677190276       -3.5554263077        3.2822613295
 C         -4.4559264399       -3.6389037976        3.2143219887
 C         -5.1804041633       -2.8251011484        2.3612806312
 C         -4.4927511447       -1.9187328473        1.5669649389
 C         -4.9029829922       -0.9421155817        0.5933043630
 C         -6.1574947615       -0.6168891822        0.0905695203
 C         -6.2757928109        0.3769100145       -0.8626097818
 C         -5.1256454523        1.0551154369       -1.2450880849
 O         -5.1098333530        2.0954665942       -2.1225201364
 C         -3.8271254961        2.5438147008       -2.1658311571
 C         -3.3669647763        3.6145708384       -2.9105697436
 C         -2.0304104408        3.9483593754       -2.7843323611
 C         -1.1918849016        3.2458570395       -1.9220875713
 C         -1.6545713407        2.1766562515       -1.1816703966
 C         -2.9847821672        1.7899876153       -1.3193798879
 C         -3.8339147206        0.7836659192       -0.7384065725
 C         -3.7212153000       -0.2912265806        0.1528905351
 C         -0.9375369319       -0.8313172164       -0.9413423326
 N          0.3352272141       -0.7736742440       -1.3469189467
 C          3.7195818188       -0.3012937319       -0.1466268451
 C          3.8338709175        0.7802848790        0.7362949778
 H          1.6430656811        4.8064483849        3.3051811068
 H          0.1673889144        3.5685072418        1.7884234523
 H          1.0056948856        1.6627731882        0.4825057100
 H          4.0407417894        4.1864156269        3.5201145467
 H          7.2256635595        0.6379526092        1.2954536173
 H          7.0271231476       -1.1651047237       -0.4215742692
 H          6.2508316944       -2.9232065224       -2.2841323298
 H          4.9657727514       -4.3910104061       -3.8021348894
 H          2.5232093491       -4.2344080066       -3.9279845253
 H          1.2826635462       -2.6084654572       -2.5308664631
 H          1.6871026843       -0.8934671541        1.7204193350
 H         -1.2866047918       -2.5910197047        2.5467937156
 H         -2.5293567583       -4.2031266329        3.9577193406
 H         -4.9728673519       -4.3513034041        3.8396009149
 H         -6.2564656441       -2.8892467879        2.3147623276
 H         -7.0309592441       -1.1423470003        0.4415872539
 H         -7.2273587895        0.6477857636       -1.2893271203
 H         -4.0357627968        4.1650693903       -3.5525748254
 H         -1.6349083290        4.7775227461       -3.3505699759
 H         -0.1599856480        3.5486480100       -1.8257718540
 H         -1.0019432385        1.6587932278       -0.4994658138
 H         -1.6895323911       -0.9058301469       -1.7121784887
