58

C     -7.890443   -2.092587   -0.380431
C     -6.781525   -2.925805   -0.388917
C     -5.494290   -2.408645   -0.211597
C     -5.334817   -1.021491    0.003319
C     -6.440309   -0.167223   -0.048520
C     -7.730988   -0.715060   -0.222537
C     -5.964505    1.170734    0.059697
C     -6.611716    2.426650    0.040176
C     -5.864637    3.599887    0.163310
C     -4.486490    3.537450    0.311838
C     -3.824128    2.306554    0.336499
C     -4.575069    1.120675    0.192300
N     -4.202028   -0.227418    0.223229
C     -2.866998   -0.694725    0.444942
C     -2.647672   -1.893891    1.109826
N     -1.408345   -2.389050    1.342146
C     -0.381838   -1.624124    0.893669
C     -0.562379   -0.407845    0.241512
C      0.562391    0.408131   -0.240917
C      0.381854    1.624472   -0.892957
N      1.408352    2.389387   -1.341462
C      2.647676    1.894138   -1.109317
C      2.867000    0.694901   -0.444559
N      4.202027    0.227470   -0.223081
C      4.574965   -1.120655   -0.192309
C      3.823907   -2.306467   -0.336420
C      4.486178   -3.537414   -0.311974
C      5.864351   -3.599965   -0.163739
C      6.611545   -2.426799   -0.040690
C      5.964424   -1.170834   -0.059998
C      6.440352    0.167076    0.048209
C      7.731113    0.714793    0.221974
C      7.890705    2.092295    0.379976
C      6.781853    2.925597    0.388823
C      5.494539    2.408560    0.211726
C      5.334916    1.021438   -0.003308
N      1.820773   -0.070817   -0.024969
N     -1.820767    0.071024    0.025412
H     -8.884977   -2.507999   -0.522328
H     -6.912819   -3.994357   -0.546571
H     -4.648436   -3.087031   -0.269653
H     -8.600475   -0.064019   -0.254164
H     -7.690832    2.483580   -0.072444
H     -6.366606    4.563861    0.146755
H     -3.912692    4.455544    0.416808
H     -2.748460    2.286180    0.476389
H     -3.447209   -2.489237    1.535558
H      0.608232   -2.026512    1.086486
H     -0.608217    2.026915   -1.085657
H      3.447197    2.489478   -1.535084
H      2.748210   -2.286009   -0.476082
H      3.912291   -4.455453   -0.416879
H      6.366250   -4.563975   -0.147334
H      7.690680   -2.483825    0.071707
H      8.600560    0.063687    0.253329
H      8.885305    2.507620    0.521672
H      6.913263    3.994123    0.546573
H      4.648757    3.087014    0.270039
