  99
 
 C         -3.7930172693       -4.9364375340       -2.5763197131
 C         -2.6233978927       -5.3497656325       -1.9497441855
 C         -1.7280912428       -4.4278658254       -1.4589931031
 C         -1.9856361084       -3.0498661731       -1.5799374401
 C         -1.0837386545       -2.0887243894       -1.0475587708
 N         -1.3693400803       -0.7665885155       -1.1522863089
 C         -0.4610848307        0.0584524270       -0.7307401361
 N         -0.7012100108        1.4200566960       -0.8578900059
 C          0.2498905382        2.2588858553       -1.4212213091
 C          1.5282094800        1.9698989429       -1.8713691147
 C          2.2844479268        3.0106809699       -2.3811485037
 C          1.7744726892        4.3035760204       -2.4623976560
 C          0.4813076580        4.5855062558       -2.0640795150
 C         -0.2945111516        3.5535859268       -1.5508904080
 C         -1.6490967879        3.4730441762       -1.0916951393
 C         -2.6406017762        4.4460987678       -1.0843967527
 C         -3.9005434456        4.1108764594       -0.6380326897
 C         -4.1242443867        2.8272107491       -0.1513091756
 C         -5.3132197188        2.2669343595        0.4167881326
 C         -6.5887882395        2.7715988081        0.6340510684
 C         -7.5145773027        1.9690397602        1.2725049539
 C         -7.1694364673        0.6948150081        1.7139402008
 C         -5.9034771449        0.1753960629        1.5070050884
 C         -4.9828664236        0.9586701064        0.8247442663
 N         -3.6583865980        0.6992805512        0.5021869604
 C         -3.0378207971       -0.4741244212        0.9575726600
 C         -3.6478781315       -1.7057531355        0.7334170949
 C         -3.1005950524       -2.8549985590        1.2712751618
 C         -1.9435221243       -2.7875502304        2.0280692464
 C         -1.3304741764       -1.5636435423        2.2434304377
 C         -1.8772544837       -0.4074244885        1.7226705213
 C         -3.1164044704        1.8196551524       -0.0952846396
 C         -1.8660553038        2.1306835438       -0.6519003133
 N          0.7601144102       -0.2725901419       -0.2385939563
 C          0.9506540085       -1.5924969201       -0.1272673523
 N          2.1923166879       -2.0216456152        0.3084378726
 C          2.5227027571       -3.3816966320        0.2907821081
 C          1.7303466951       -4.4736404337        0.5934355348
 C          2.3067951904       -5.7304618429        0.5102949553
 C          3.6372936962       -5.8945861468        0.1381506886
 C          4.4360850222       -4.8033961062       -0.1469928197
 C          3.8776264730       -3.5353137185       -0.0624014981
 C          4.4091364924       -2.2131755211       -0.2548399699
 C          5.6500611324       -1.7863550722       -0.7195345497
 C          5.8846591701       -0.4353377812       -0.8630021015
 C          4.9219207476        0.4687442273       -0.4208983393
 C          4.9545993218        1.8974714305       -0.3101816488
 C          5.8806786763        2.8495231907       -0.7142736971
 C          5.6411222751        4.1749568718       -0.4099723553
 C          4.5133237209        4.5426414425        0.3175666850
 C          3.5823032739        3.6083717495        0.7338257854
 C          3.7858742479        2.2802135146        0.3870469033
 N          3.0283004452        1.1509439354        0.6614617683
 C          2.0481486534        1.1106489225        1.6605208041
 C          1.0625589945        2.0924757876        1.7390914908
 C          0.2039761001        2.1279058486        2.8217603361
 C          0.3120619904        1.1901237066        3.8369685079
 C          1.2734100655        0.1962940384        3.7474788300
 C          2.1388075674        0.1544076898        2.6713290008
 C          3.6862098595        0.0516187745        0.1407140026
 C          3.3711612471       -1.3052790106        0.0788976285
 N          0.0770508235       -2.4988907257       -0.4573621076
 C         -3.1636526928       -2.6439346667       -2.2347790719
 C         -4.0491781722       -3.5773623884       -2.7199007422
 H         -4.4937074312       -5.6651013469       -2.9565399553
 H         -2.4155395299       -6.4061846801       -1.8484798079
 H         -0.8141130972       -4.7419824914       -0.9796449781
 H          1.9200595911        0.9672263675       -1.8275471346
 H          3.2880023686        2.8143879434       -2.7263106044
 H          2.3973174900        5.0917272673       -2.8578295270
 H          0.0789296194        5.5832953341       -2.1506839583
 H         -2.4191656676        5.4397406866       -1.4406472925
 H         -4.7056177546        4.8283111443       -0.6442666592
 H         -6.8455171585        3.7698691591        0.3147380788
 H         -8.5143609282        2.3370533908        1.4473990079
 H         -7.9030438260        0.0983295200        2.2349771208
 H         -5.6473523787       -0.8029558103        1.8818526674
 H         -4.5214973895       -1.7639623093        0.1036411927
 H         -3.5702449910       -3.8075435174        1.0792008622
 H         -1.5143151299       -3.6869766801        2.4429078559
 H         -0.4215020401       -1.5028543033        2.8229837959
 H         -1.4109608395        0.5488135263        1.9046108667
 H          0.7012343725       -4.3452261428        0.8841079416
 H          1.7112883341       -6.6007835247        0.7424389499
 H          4.0518591860       -6.8901528558        0.0805969496
 H          5.4723337100       -4.9296431514       -0.4214861091
 H          6.4007733242       -2.5130867732       -0.9872356429
 H          6.8156820529       -0.0727673788       -1.2694463233
 H          6.7674179736        2.5543150073       -1.2543155937
 H          6.3416665563        4.9344044286       -0.7233814745
 H          4.3612769698        5.5816959891        0.5685070258
 H          2.7356140325        3.9213412835        1.3218915518
 H          0.9569943945        2.8104534211        0.9424300308
 H         -0.5542281892        2.8970699083        2.8737812048
 H         -0.3550650529        1.2270172218        4.6849388973
 H          1.3661281432       -0.5378934697        4.5350177121
 H          2.9085711011       -0.6015773215        2.6245258631
 H         -3.3491626040       -1.5868170474       -2.3490195188
 H         -4.9519931645       -3.2533450901       -3.2195410052
