  95
 
 C          9.1170025635        2.4442706574       -1.7899506136
 C          8.4462252420        2.1052896301       -0.4648977156
 C          7.3875249432        3.1409519422       -0.0943115558
 C          6.6795437287        2.8070229288        1.2246477559
 N          5.9082313028        1.5998911779        1.1237767078
 C          6.2651263026        0.3365369267        1.5824867372
 C          7.3803336478       -0.0430444463        2.3000747623
 C          7.4930573710       -1.3803109941        2.6830476041
 C          6.5094399233       -2.3033509294        2.3663450318
 C          5.3844767441       -1.9403424448        1.6418336160
 C          5.2582370108       -0.6136571289        1.2278334735
 C          4.2934500263        0.1265467996        0.5030533916
 C          4.7226729165        1.4834876724        0.4727591989
 C          3.7320793638        2.2427118536       -0.1832726974
 C          3.5765947736        3.5895310929       -0.5247016207
 C          2.4422944038        3.9701104282       -1.2188168640
 C          1.4834896360        3.0410700786       -1.5978786532
 C          1.6173680793        1.6892225400       -1.2742865573
 C          2.7192298603        1.2992881944       -0.5461485782
 N          3.0819365805        0.0198214606       -0.1054311560
 C          2.3599002614       -1.1559867068       -0.3108202145
 C          3.0521359699       -2.3224523759       -0.7118620519
 C          2.3491667074       -3.5012294565       -0.9071054196
 C          0.9888744540       -3.5125749509       -0.7282159472
 C          0.2734596838       -2.3491061087       -0.3459010729
 C          0.9882647114       -1.1721177123       -0.1230092292
 C         -1.1418718552       -2.5336597383       -0.2657048668
 C         -2.1095700786       -1.5667065391        0.0204083032
 C         -3.4508639565       -1.8990791884       -0.0367684617
 N         -4.3945886407       -0.8833826725        0.1709703708
 C         -5.5237354239       -0.9274456011        0.9714176518
 C         -5.9899440774       -1.9596719966        1.7692317856
 C         -7.1464150337       -1.7498181122        2.4994872803
 C         -7.8251651285       -0.5342247792        2.4515328107
 C         -7.3581762676        0.5145722165        1.6851599052
 C         -6.1970083449        0.3323445826        0.9387998082
 C         -5.4089443512        1.1430517320        0.0811759369
 C         -4.3232747231        0.3745006969       -0.3620032524
 C         -3.5682780770        1.1709007947       -1.2641205595
 C         -2.4387209506        0.9739835586       -2.0547747699
 C         -1.9884008531        2.0172161733       -2.8384207252
 C         -2.6396608711        3.2483168696       -2.8435813219
 C         -3.7720420012        3.4675145398       -2.0802678720
 C         -4.2468397924        2.4281632205       -1.2944339207
 N         -5.3644739717        2.3841064676       -0.4851988381
 C         -6.2812011313        3.4540355309       -0.2035780017
 C         -6.0025276283        4.1008830213        1.1585223185
 C         -4.6549147699        4.8172638542        1.1974984975
 C         -4.3862154198        5.4264121346        2.5676890835
 C         -3.8643920793       -3.2070189403       -0.3446677576
 C         -2.9062969414       -4.1792319743       -0.6041823660
 C         -1.5775625298       -3.8429573660       -0.5701380618
 S         -0.1558746447       -4.8669855718       -0.9230394189
 O          0.0378624697       -5.8672970796        0.0991145610
 O         -0.1822749141       -5.3435338284       -2.2849231822
 H          8.3834974420        2.4719279409       -2.5926509554
 H          9.6023323090        3.4164436787       -1.7358548385
 H          9.8683424714        1.6988802605       -2.0378291351
 H          9.2020362999        2.0609069631        0.3226641937
 H          7.9825240708        1.1191792502       -0.5364797773
 H          7.8540102167        4.1234272592        0.0012473133
 H          6.6415597941        3.1967787089       -0.8901649765
 H          7.4130095496        2.6873520044        2.0243579568
 H          6.0029772207        3.6245709662        1.4946758464
 H          8.1511198213        0.6624541159        2.5690133607
 H          8.3605089917       -1.6931550356        3.2435875543
 H          6.6198669643       -3.3270626820        2.6904664502
 H          4.6212042081       -2.6643457447        1.4049768640
 H          4.3278467198        4.3161650545       -0.2552835496
 H          2.3060018025        5.0085645733       -1.4821300186
 H          0.6156105635        3.3624643819       -2.1520212462
 H          0.8746267802        0.9794025402       -1.6010419286
 H          4.1130746306       -2.2707547392       -0.8930117012
 H          2.8584311752       -4.4033405131       -1.2091162769
 H          0.4828331998       -0.2857030816        0.2279315321
 H         -1.8224347801       -0.5608843176        0.2865172645
 H         -5.4598150232       -2.8971012567        1.8304184032
 H         -7.5280551901       -2.5436176655        3.1233945472
 H         -8.7260195031       -0.4093678655        3.0334028688
 H         -7.8809241649        1.4593844201        1.6697976530
 H         -1.9370758672        0.0183680585       -2.0636313120
 H         -1.1196076265        1.8760790320       -3.4638974549
 H         -2.2588470666        4.0468624074       -3.4628450024
 H         -4.2683309916        4.4256085910       -2.1064209905
 H         -6.2016047817        4.2005767647       -0.9965370758
 H         -7.2972593654        3.0461390533       -0.2151579180
 H         -6.0222084366        3.3255808813        1.9276250964
 H         -6.8016214130        4.8124469051        1.3756754130
 H         -3.8591742038        4.1100644989        0.9538836591
 H         -4.6416923294        5.6063101978        0.4419145703
 H         -3.4247157820        5.9336506381        2.5772606057
 H         -4.3737631293        4.6534163438        3.3328640059
 H         -5.1583830151        6.1487927521        2.8235313728
 H         -4.9152516381       -3.4349127579       -0.4174260614
 H         -3.1984859858       -5.1882677807       -0.8501552251
