  58
 
 C          6.8549982860        2.3993211577       -0.0003168829
 C          6.0427833408        1.1496109041       -0.0001594600
 N          6.6946561519       -0.0000307541       -0.0001826360
 C          6.0427780616       -1.1496723898       -0.0000367004
 C          6.8549893322       -2.3993849058       -0.0000765700
 C          4.6366013751       -1.1965944574        0.0001294313
 C          3.9507650519       -2.4303401615        0.0002795898
 N          3.3998604804       -3.4356570623        0.0004760149
 C          3.9152066724       -0.0000279836        0.0001299003
 C          2.4380119609       -0.0000231575        0.0001574627
 C          1.7425025354        0.0001833323        1.2028875929
 C          0.3611501637        0.0001841194        1.2029393042
 C         -0.3337461432       -0.0000067362        0.0000694125
 N         -1.7539803539        0.0000058002        0.0000266068
 C         -2.4242453129        1.2129577928        0.0001152797
 C         -1.6943951859        2.4050008435        0.0002234301
 C         -2.3342952163        3.6265235878        0.0002781817
 C         -3.7163404208        3.6797213775        0.0002017447
 C         -4.4392521117        2.5010411814        0.0000928758
 C         -3.8219781611        1.2577851037        0.0000637381
 C         -4.6707153108        0.0000326491       -0.0000707327
 C         -5.5509838234        0.0001019829       -1.2631789979
 C         -5.5512152020       -0.0000206988        1.2628744612
 C         -3.8220013020       -1.2577353989       -0.0000505884
 C         -4.4392979086       -2.5009802461       -0.0000777212
 C         -3.7164077806       -3.6796737267       -0.0000741327
 C         -2.3343616122       -3.6265012548       -0.0000561739
 C         -1.6944392921       -2.4049901131       -0.0000331288
 C         -2.4242675929       -1.2129336239       -0.0000223975
 C          0.3612194582       -0.0002087987       -1.2027599438
 C          1.7425698800       -0.0002256453       -1.2026149548
 C          4.6366040570        1.1965421714       -0.0000019806
 C          3.9507893878        2.4302800080       -0.0000501693
 N          3.3999237447        3.4355816992       -0.0000139291
 H          6.6239369190        3.0005613801        0.8783521016
 H          6.6229578458        3.0010013559       -0.8784235693
 H          7.9110159606        2.1461278686       -0.0009350586
 H          7.9110091642       -2.1461964537       -0.0002511868
 H          6.6235691583       -3.0007834000        0.8783900573
 H          6.6233076398       -3.0009096686       -0.8783859266
 H          2.2850202983        0.0003178217        2.1372772214
 H         -0.1866032138        0.0003250990        2.1330620625
 H         -0.6153670842        2.3719698846        0.0002630087
 H         -1.7495098112        4.5340372005        0.0003787435
 H         -4.2291678752        4.6294860815        0.0002337151
 H         -5.5174029522        2.5581881106        0.0000332421
 H         -6.1868605674       -0.8803711717       -1.2934325735
 H         -4.9223450079        0.0002323411       -2.1517753165
 H         -6.1869738502        0.8804992718       -1.2932552563
 H         -4.9227460242       -0.0001601044        2.1515912391
 H         -6.1872290269       -0.8804039322        1.2928331326
 H         -6.1870863906        0.8804596238        1.2930078731
 H         -5.5174497707       -2.5581075124       -0.0001012091
 H         -4.2292525695       -4.6294290710       -0.0000787348
 H         -1.7495929022       -4.5340257378       -0.0000499021
 H         -0.6154104942       -2.3719785401       -0.0000129893
 H         -0.1864663637       -0.0003410386       -2.1329219502
 H          2.2851547090       -0.0003660049       -2.1369656509
