  86
 
 C          6.4241578706        2.1210648167        1.7872257568
 O          5.9182651088        1.0487318783        1.0282223178
 C          4.7356904320        1.1528716383        0.3782967007
 C          4.0072699917        2.3282171697        0.2026640513
 C          4.4863780047        3.6122813264        0.5275784022
 N          4.8092417628        4.6975697407        0.7271591684
 C          2.7019841141        2.2901116085       -0.3681580055
 C          1.9669813232        3.5726263322       -0.5960984118
 C          2.1339730547        1.0847491376       -0.6542356851
 C          2.8391401569       -0.1235799894       -0.4934223030
 C          2.2251397411       -1.3911963671       -0.6390496255
 Se         0.4024872753       -1.5560538619       -1.2291491898
 Se        -0.5894007026       -1.6433174074        0.9137378104
 C         -2.3808894440       -1.2256054204        0.3553287620
 C         -3.2051133344       -2.2305421993       -0.1261820327
 C         -2.7169738287       -3.6172422484       -0.3891722497
 N         -4.4984091032       -2.0158812760       -0.3335434788
 C         -5.0434782697       -0.8209278329       -0.1603709866
 N         -6.3976616291       -0.7659480630       -0.1115429987
 C         -7.1665297957       -1.9192850324       -0.5572200781
 C         -8.2587106824       -2.2875462258        0.4385323757
 C         -9.2667319112       -1.1413615549        0.5762716256
 C         -8.5630349821        0.2095314441        0.3958968979
 C         -7.1007608942        0.1068764074        0.8103340974
 C         -4.2010451079        0.3408050063       -0.0474181172
 C         -4.5852861246        1.6549558366       -0.4276432221
 O         -5.7707843578        1.7330433012       -1.0790596155
 C         -6.1837965508        2.9207624228       -1.7109128977
 C         -3.7289111706        2.7232089095       -0.1674986827
 C         -4.0453382841        4.0732569291       -0.4140256352
 N         -4.2270008418        5.2005295178       -0.5496809636
 C         -2.4450338779        2.4938069082        0.4072016300
 C         -1.5732546106        3.6628794422        0.7393467111
 C         -2.0207588881        1.2131332739        0.5998647354
 C         -2.8535353008        0.1089212800        0.3351507948
 C          2.9377611206       -2.5246513344       -0.2803873340
 C          2.3070237933       -3.8729584211       -0.1646045212
 N          4.2479828023       -2.4701766139       -0.0720914164
 C          4.9107202714       -1.3258775720       -0.1045176701
 N          6.2651400124       -1.4158925583       -0.1303923964
 C          6.8748935940       -2.7145590981        0.0739501889
 C          8.2213737262       -2.5369534001        0.7710443639
 C          9.1342101908       -1.6419955535       -0.0607076819
 C          8.4362486640       -0.3093230193       -0.3114294937
 C          7.0791686458       -0.5556199610       -0.9635105997
 C          4.2017661741       -0.0758567764       -0.0966436907
 H          5.6633122922        2.5445892014        2.4478165345
 H          7.2254634514        1.6962251615        2.3920829564
 H          6.8317086979        2.9117319436        1.1520568715
 H          2.5375609141        4.2232060367       -1.2585168303
 H          1.8275448933        4.1116659107        0.3410253579
 H          0.9956179045        3.3797639267       -1.0433483856
 H          1.1132585885        1.0405643690       -1.0072357254
 H         -2.3083332662       -4.0521557975        0.5223754203
 H         -3.5364417179       -4.2308223065       -0.7502268416
 H         -1.9223100887       -3.5957932473       -1.1360583995
 H         -6.4753154245       -2.7501213382       -0.6984740612
 H         -7.6225407219       -1.6742249397       -1.5246471639
 H         -7.7979557222       -2.5070403524        1.4029296878
 H         -8.7602502724       -3.1951364280        0.1018005346
 H         -9.7402626200       -1.1911207003        1.5580194768
 H        -10.0536012936       -1.2435975168       -0.1722716023
 H         -9.0568130639        0.9790356481        0.9898930612
 H         -8.5984058306        0.5215104696       -0.6483664606
 H         -6.6457266128        1.0929722864        0.8283275952
 H         -7.0374570404       -0.3038016567        1.8295263762
 H         -7.0603330232        2.6430653388       -2.2958468072
 H         -5.4129439570        3.3136767898       -2.3787175794
 H         -6.4622050563        3.6913597856       -0.9875060270
 H         -1.3704873908        4.2609231495       -0.1490562606
 H         -0.6315916948        3.3262078351        1.1645538421
 H         -2.0716306051        4.3140470845        1.4572462683
 H         -1.0161100222        1.0257131640        0.9520023177
 H          1.5281943207       -3.8544752008        0.5990440877
 H          1.8428660399       -4.1545293233       -1.1092451811
 H          3.0610684242       -4.6061220075        0.1040041337
 H          7.0165686347       -3.2246817091       -0.8890838553
 H          6.1973680267       -3.3144702703        0.6803919847
 H          8.0565256791       -2.0792481225        1.7479356599
 H          8.6795396700       -3.5150775581        0.9236528284
 H          9.3506825069       -2.1274503328       -1.0155071758
 H         10.0814810772       -1.4810407056        0.4566230493
 H          8.2863732756        0.2076306423        0.6354848220
 H          9.0400500249        0.3256361633       -0.9615886364
 H          7.2374309075       -1.0586182413       -1.9316457538
 H          6.5635399571        0.3824223076       -1.1585885254
