  72
 
 C         -7.5865258734        0.2720308646        1.2442069236
 C         -6.7062535506        0.0073646925        0.0077832890
 C         -7.5890557379       -0.2538291172       -1.2275783141
 C         -5.8625726149       -1.2221182668        0.2710969615
 C         -6.4799011170       -2.4371059745        0.5346648106
 C         -5.7541260028       -3.5846153099        0.7965353581
 C         -4.3688949018       -3.5296490755        0.8085431420
 C         -3.7277376865       -2.3392970825        0.5504300803
 C         -4.4603212375       -1.1774398639        0.2683461636
 N         -3.7929961049        0.0013390597        0.0045730991
 C         -2.3684032925       -0.0017945411        0.0022808168
 C         -1.6807928495       -0.4917811376       -1.1000250750
 C         -0.3001616057       -0.4989127342       -1.0977392638
 C          0.4006187503       -0.0070846199       -0.0025962685
 C          1.8776361099       -0.0085092607       -0.0054211790
 C          2.5506590802       -1.2283307138       -0.0896176937
 C          1.7919991124       -2.3909673148        0.0097897176
 N          1.0642385885       -3.2850137045        0.0923973506
 C          4.0115878634       -1.1880502516       -0.1064059445
 C          4.8650748073       -2.3496163751       -0.1482827665
 C          4.4248825304       -3.6098286094       -0.5734221331
 C          5.2976119919       -4.6773726142       -0.6226313766
 C          6.6239222115       -4.5241242171       -0.2487190001
 C          7.0767242370       -3.2786182001        0.1677348025
 C          6.2154114152       -2.2074063322        0.2179897716
 N          4.5750867711       -0.0094608981       -0.0106939606
 C          4.0127934051        1.1691506901        0.0878545298
 C          4.8664667811        2.3308630625        0.1279543773
 C          4.4290257403        3.5879952704        0.5646698030
 C          5.3012524310        4.6560294972        0.6121428544
 C          6.6241077541        4.5060940639        0.2248970353
 C          7.0741390409        3.2635077447       -0.2030173259
 C          6.2133067007        2.1917263903       -0.2515267403
 C          2.5520055840        1.2108600048        0.0763494684
 C          1.7950130412        2.3746728489       -0.0215465957
 N          1.0693367394        3.2705159176       -0.1027113441
 C         -0.2944764546        0.4871436873        1.0951194324
 C         -1.6750809386        0.4852758347        1.1023050099
 C         -4.4560008645        1.1830559557       -0.2570312824
 C         -3.7192801186        2.3420800062       -0.5399988487
 C         -4.3561196406        3.5352284193       -0.7959032436
 C         -5.7410854090        3.5958470251       -0.7809656191
 C         -6.4709858216        2.4511442120       -0.5182771176
 C         -5.8580664872        1.2335130015       -0.2566235580
 H         -8.2244772469       -0.5813611957        1.4547279915
 H         -8.2199853701        1.1405227429        1.0891803312
 H         -6.9588033087        0.4549267531        2.1141548270
 H         -8.2241627538        0.6019423126       -1.4370645043
 H         -6.9631197120       -0.4387789547       -2.0983804179
 H         -8.2254267183       -1.1200836263       -1.0719238386
 H         -7.5574303911       -2.4959430468        0.5381916890
 H         -6.2661157062       -4.5133162631        0.9953378401
 H         -3.7870504064       -4.4129991744        1.0201985525
 H         -2.6501814612       -2.3019877941        0.5674018482
 H         -2.2309082460       -0.8670035404       -1.9498535115
 H          0.2377485886       -0.8782345506       -1.9533478812
 H          3.4010218146       -3.7504759877       -0.8801288025
 H          4.9395295073       -5.6404934526       -0.9559647084
 H          7.2999497017       -5.3652691005       -0.2834694867
 H          8.1106171912       -3.1493951804        0.4542867535
 H          6.5616192075       -1.2373171110        0.5431281046
 H          3.4079877312        3.7255715206        0.8821212051
 H          4.9455349895        5.6167963834        0.9546483077
 H          7.2996930238        5.3476536359        0.2582144118
 H          8.1054187742        3.1369734048       -0.4999854321
 H          6.5573195624        1.2239176728       -0.5856583215
 H          0.2478946841        0.8644653727        1.9487979744
 H         -2.2207713192        0.8626384669        1.9540350337
 H         -2.6419252628        2.3004359278       -0.5593769298
 H         -3.7711014507        4.4163347950       -1.0081553211
 H         -6.2497027637        4.5267521524       -0.9781174764
 H         -7.5482722627        2.5143469818       -0.5196221011
