  87
 
 C          7.0142049073        3.0127990521        0.2167666633
 C          5.7868878568        2.2669606969       -0.2180212272
 C          4.7169902869        2.9733876198       -0.7775544530
 C          3.5547234138        2.3488260888       -1.1828734434
 C          3.4710312699        0.9733033444       -1.0298515081
 C          4.5385891100        0.2389822900       -0.4710740125
 C          5.6934753247        0.8947213108       -0.0650673318
 C          4.1282221151       -1.1378095088       -0.4636049940
 C          4.7555415839       -2.3200369009       -0.0911033255
 C          4.0997766402       -3.5243872629       -0.2762125435
 C          4.7360331804       -4.8219395014        0.1289297692
 C          2.8285630903       -3.5356841055       -0.8612776517
 C          2.1824240942       -2.3762515347       -1.2379200329
 C          2.8246603724       -1.1719628339       -1.0022571095
 N          2.4245516623        0.1158270617       -1.3124473016
 C          1.1970539107        0.4765724602       -1.8779953340
 C          1.1862512230        1.1291232148       -3.1081604843
 C         -0.0128352291        1.4762248175       -3.7019827006
 C         -1.2071874375        1.1282302691       -3.0991480034
 C         -1.2078284001        0.4757416366       -1.8689958100
 N         -2.4306060105        0.1140035912       -1.2936479033
 C         -2.8303490478       -1.1747932577       -0.9872305978
 C         -2.1907669589       -2.3785516643       -1.2327789742
 C         -2.8366197260       -3.5391479268       -0.8595860864
 C         -4.1046725344       -3.5293981082       -0.2675518089
 C         -4.7460613130       -4.8303455528        0.1185476353
 C         -4.7573419361       -2.3252937383       -0.0709106944
 C         -4.1305014198       -1.1417297032       -0.4403791553
 C         -4.5398858446        0.2354412932       -0.4401032898
 C         -5.6920481641        0.8907184617       -0.0256489099
 C         -5.7855866384        2.2634373308       -0.1745761755
 C         -7.0158583800        3.0070236075        0.2558228808
 C         -4.7188522675        2.9707812249       -0.7388650315
 C         -3.5590794166        2.3468038120       -1.1520939518
 C         -3.4751858343        0.9709348580       -1.0028571642
 C         -0.0028518589        0.1869443494       -1.2187317237
 P          0.0012389634       -0.4421731468        0.5125686358
 O         -0.0035695473       -1.9052658293        0.6754790743
 C          1.4315518955        0.3321976723        1.3376321039
 C          2.2361901673       -0.5160032328        2.0861872205
 C          3.3068847583       -0.0118637948        2.8014978192
 C          3.5687930097        1.3478293980        2.7828010597
 C          2.7651841953        2.1982351050        2.0413325173
 C          1.7019216186        1.6943214467        1.3154126428
 C         -1.4188753589        0.3422952566        1.3456819240
 C         -1.6803670567        1.7061639325        1.3236172934
 C         -2.7368468950        2.2176415012        2.0541017324
 C         -3.5426694352        1.3731880169        2.7999756059
 C         -3.2891655343        0.0119141102        2.8191147057
 C         -2.2251424014       -0.4998967675        2.0992501731
 H          6.7701769374        3.7050506958        1.0224955759
 H          7.4210217795        3.5948022134       -0.6093974307
 H          7.7803289065        2.3275226368        0.5702216603
 H          4.8054339050        4.0446064965       -0.8908204860
 H          2.7376903846        2.9169086718       -1.6023887783
 H          6.5086386037        0.3340761340        0.3683569350
 H          5.7497625578       -2.2954362697        0.3308556140
 H          4.7479204397       -5.5199728265       -0.7071440375
 H          4.1686216793       -5.2822594635        0.9380440492
 H          5.7568560202       -4.6651551867        0.4682086496
 H          2.3395215628       -4.4853688948       -1.0252799500
 H          1.2076902693       -2.4107470487       -1.7004448043
 H          2.1265299081        1.3485056261       -3.5911980123
 H         -0.0165952213        1.9876914308       -4.6522673310
 H         -2.1513491128        1.3468956929       -3.5749050396
 H         -1.2182700373       -2.4115086830       -1.7001120622
 H         -2.3502439883       -4.4887883463       -1.0316216954
 H         -5.7035354301       -4.6625551493        0.6051997032
 H         -4.1003946655       -5.3847484297        0.7987890348
 H         -4.9085697691       -5.4495344915       -0.7636427883
 H         -5.7490897995       -2.3017814871        0.3569131113
 H         -6.5049192843        0.3294248534        0.4113047503
 H         -7.5239046791        3.4317636193       -0.6101489551
 H         -7.7082255933        2.3467024666        0.7715349041
 H         -6.7526768062        3.8275994982        0.9218576573
 H         -4.8078532950        4.0421761201       -0.8498543767
 H         -2.7441467435        2.9154476133       -1.5748897701
 H          2.0118820971       -1.5735471141        2.0854343885
 H          3.9349057253       -0.6801279881        3.3719580450
 H          4.4012967511        1.7459490759        3.3433559389
 H          2.9723020639        3.2577032601        2.0214937693
 H          1.0948103124        2.3591166525        0.7197326726
 H         -1.0717129942        2.3664029281        0.7244448557
 H         -2.9370428515        3.2784395348        2.0345991718
 H         -4.3703971630        1.7773811365        3.3632399188
 H         -3.9187382253       -0.6517929550        3.3931909926
 H         -2.0077182478       -1.5588824832        2.0986733959
