144
 xtb: 6.7.1 (edcfbbe)
O           -0.19869415244054       -6.90118440028597        0.13723854144022
C           -0.18078876803923       -5.68104969007819        0.14188037831762
C            1.06562307708345       -4.90107226438624       -0.04932088944389
C            2.02625662604602       -5.31498000154965       -0.96985977132297
C            3.17134090706114       -4.56996385574258       -1.17138271591266
C            3.40076648880344       -3.42330470578504       -0.41094092964311
N            4.57832699251199       -2.68481661510274       -0.56866593792539
C            5.83870892831089       -3.22654612072538       -0.38285475852652
C            6.20353967545175       -4.56040563376156       -0.28016528721086
C            7.52818997342219       -4.85633041053449       -0.02306856123674
C            8.46092035297808       -3.84142083599692        0.16254718511686
C            8.09515182555091       -2.51206707501925        0.09265728274484
C            6.77626939859173       -2.18199259388455       -0.20653567113066
C            6.03495800649258       -0.94977251422469       -0.29241603488936
C            6.34186002293898        0.40859110383274       -0.10389490164388
C            5.31385377427016        1.36999171898490        0.04745565407839
C            5.94879762279716        2.57673119997956        0.50412610123737
C            5.49524194716284        3.79999040508710        0.99041150117295
C            6.41696137664358        4.76631279021925        1.33949038114677
C            7.78440036900060        4.53994478996245        1.20941756913437
C            8.26345081548490        3.31439589517196        0.78906455859984
C            7.34102817891180        2.32597917800825        0.47978980498550
N            7.56445844673836        1.01327435474027        0.10592462601674
C            8.81544439309228        0.54467684219312       -0.32816197587101
C            9.92191704152939        0.60157111113992        0.51422578834477
C           11.15732973347578        0.17842025586939        0.05614331271494
C           11.29589866962061       -0.30656765467120       -1.23418748541267
C           10.19284718563694       -0.37010654199298       -2.07043204616992
C            8.95631088817593        0.05862556436445       -1.62540686585983
C            4.01019556310128        1.00854538964751       -0.32561074096042
C            3.68632969075653       -0.32991219292583       -0.65248139610892
C            2.31716949723186       -0.32422648816689       -1.09289527114502
C            1.47729365384973       -1.25408359665737       -1.70108608960421
C            0.20550546715134       -0.86707467142933       -2.07280597405376
C           -0.24939994031739        0.43064917636872       -1.85830588799545
C            0.57699353518976        1.38836536969425       -1.30686427907454
C            1.85929086808363        1.00589211542292       -0.94346907259500
N            2.89128534466127        1.79557624080602       -0.47654025450881
C            2.85238463891007        3.20048805485202       -0.58351431064299
C            3.71133639226794        3.85364700896401       -1.46224316917218
C            3.64642055412251        5.22831824064069       -1.59420752209172
C            2.72292575051618        5.95657296328813       -0.86161254693255
C            1.86154874713227        5.30588360609733        0.00609168965293
C            1.92134087220365        3.93085924437473        0.14627948877980
C            4.68434358800502       -1.30728171746189       -0.50497314787711
C            2.46095174448443       -3.03227253707501        0.54343672035211
C            1.29619251308741       -3.74939900073160        0.70411266262881
C           -1.40218768264424       -4.86660249184060        0.33045631867866
C           -1.54481856000485       -3.65401082471411       -0.34525007043023
C           -2.69221936070890       -2.90796179186075       -0.20336601636169
C           -3.71011101243472       -3.33482813874519        0.65122776715401
N           -4.86008418651510       -2.55165298868219        0.78420007589930
C           -6.13962673250236       -3.00269365488840        0.49825233248360
C           -6.60235948419930       -4.30410410958461        0.38183069603071
C           -7.95102424458567       -4.49754924076377        0.15023587983684
C           -8.81967043428996       -3.41542264832345        0.05710069222603
C           -8.35414887765747       -2.11709573727553        0.12407254793979
C           -6.99163791399736       -1.89105383668742        0.29597328752767
C           -6.16346054857176       -0.71550999082377        0.39926222016097
C           -6.35447089984478        0.66394882784037        0.21722343077063
C           -5.33925853323664        1.59868517330697        0.53986644757974
C           -5.92544059601300        2.90476825282884        0.38555746271764
C           -5.52627459641793        4.20681157784866        0.67698977772829
C           -6.37478726588708        5.25472654242996        0.38170226245222
C           -7.61910640069335        5.03561038265285       -0.20261838374701
C           -8.06584983237743        3.75289692952034       -0.45111340284132
C           -7.23072947703540        2.69666757042900       -0.11839612366543
N           -7.47584364523001        1.34120174584534       -0.21385903062393
C           -8.54585256579206        0.81948873473502       -0.96243890454376
C           -9.85803419832013        1.11213976572888       -0.60390278088694
C          -10.90406324313727        0.63173713290895       -1.37215016598068
C          -10.64941446932374       -0.14094431783129       -2.49356832436600
C           -9.34270153284842       -0.43383000235938       -2.84907351748992
C           -8.29066492941575        0.04801153677866       -2.09237915091139
C           -4.08159629784786        1.11302025553053        0.93129488213956
C           -3.86245490666266       -0.27104840376236        1.13336196119813
C           -2.55365941949531       -0.39744756137539        1.71768402839703
C           -1.83415722379588       -1.43470393656597        2.30546695170156
C           -0.57342844597491       -1.17788713563581        2.80584767106625
C           -0.00463362784349        0.08958938885097        2.72097456419622
C           -0.71648298721979        1.14732373547563        2.19260238450242
C           -2.00221654425173        0.90470181295456        1.73565090290029
N           -2.93309444699467        1.80547354794436        1.25412209149530
C           -2.58343419048543        3.10691804176026        0.85206043528134
C           -2.07626382416429        4.01345741599181        1.77793851602841
C           -1.70747397557294        5.28230346392202        1.36648205678432
C           -1.83869122876281        5.65226963315979        0.03779197846281
C           -2.33864645533685        4.74786104595477       -0.88487627817731
C           -2.70721182057175        3.47720673781909       -0.48371587216525
C           -4.87954647868319       -1.16781719844307        0.77453141691532
C           -3.56994073858838       -4.54359009867859        1.33385038888759
C           -2.43597360960037       -5.31057892592781        1.15363961230704
H            1.84398860944300       -6.20346255559474       -1.55704032820831
H            3.87429717855159       -4.84588759307435       -1.93627265500693
H            5.46495529480568       -5.34315671795195       -0.37263428045792
H            7.82732664181480       -5.88147289753535        0.04741861879945
H            9.47781725723654       -4.09038493183607        0.37848512178931
H            8.82053184194829       -1.74445691640711        0.28588503646962
H            4.44069004126661        3.99971013437563        1.13189972778676
H            6.07022056212532        5.72296575553774        1.72831374602275
H            8.48071754370746        5.33010240762904        1.46545044097631
H            9.32008086489676        3.13916214176482        0.70904590198794
H            9.80119911737494        0.95718774741917        1.52396242915268
H           12.00782531740172        0.22460004539176        0.70066908440905
H           12.24714155066451       -0.63234755917151       -1.60081421331268
H           10.27697193952249       -0.74326979947246       -3.08312573607799
H            8.07575780032612        0.02236571745626       -2.27044938552334
H            1.80095678982560       -2.23997823614165       -1.90125676917111
H           -0.46256728863250       -1.55997322184531       -2.53926088118414
H           -1.26563425042021        0.71717477993702       -2.12720001013046
H            0.23171055611677        2.42109658307200       -1.15798794732373
H            4.42151414395142        3.27288690971060       -2.02270164683202
H            4.32725672210975        5.72434762181450       -2.27666519166652
H            2.69326133118947        7.03882477947928       -0.97399658844187
H            1.15419555578407        5.89255092514998        0.57986534781335
H            1.26014207768063        3.44531647248638        0.84186806489450
H            2.63764307137158       -2.16091638055690        1.15394748340647
H            0.55871946962749       -3.44060724575228        1.43507098285222
H           -0.76652723503021       -3.32013031254889       -1.00638514814594
H           -2.81438922631369       -1.99321992381739       -0.75040477260268
H           -5.94654645811085       -5.15219935371243        0.47366585000566
H           -8.34891517492764       -5.50045896246972        0.07693125497754
H           -9.88408284077583       -3.58515727359336       -0.06180505104496
H           -9.05086216172940       -1.29539074572011        0.06998404995158
H           -4.55286048396058        4.40035068739181        1.12286444408249
H           -6.03409074118065        6.26137762782067        0.58548426237737
H           -8.22579632025557        5.87881491460528       -0.45828607276472
H           -9.02338299061184        3.58301125176886       -0.88826064273724
H          -10.03824327365849        1.70491553661663        0.29370328170692
H          -11.91842001334691        0.86931188947552       -1.06944527461212
H          -11.47854885509237       -0.50839339666428       -3.06855159636932
H           -9.15562220973851       -1.03762179136935       -3.71164252693035
H           -7.27492739936601       -0.17776134778035       -2.36394605869062
H           -2.25902622785397       -2.43270411943722        2.40360626135240
H           -0.01872890160721       -1.99062989095398        3.28084589251669
H            1.00544021778627        0.22977400177867        3.08155870751844
H           -0.27145542547240        2.11525781704196        2.13056483218328
H           -1.97354913756536        3.71264598086356        2.79436084360518
H           -1.29393221138026        5.96782172783905        2.06436510987698
H           -1.52363831172014        6.62238752450850       -0.30718996396241
H           -2.41673378437921        5.01004193635008       -1.94563302559886
H           -3.08750119026918        2.75028671191132       -1.21408096853686
H           -4.33848285259838       -4.87214250935578        2.02187424074541
H           -2.32287110753010       -6.25894953040104        1.67125100481039
