  32
 
 C          2.8607453789        2.4066141121       -0.0000146666
 C          3.5435539387        1.2225727948       -0.0000146263
 C          2.8441104378        0.0000015098       -0.0000097876
 C          3.5435552301       -1.2225690131       -0.0000098010
 C          2.8607479235       -2.4066110745       -0.0000053750
 C          1.4663398228       -2.4131767512       -0.0000008729
 C          0.7293233773       -1.2410395404       -0.0000002861
 C         -0.7293221093       -1.2410403594        0.0000048807
 C         -1.4663372256       -2.4131782675        0.0000092894
 C         -2.8607453292       -2.4066142043        0.0000143604
 C         -3.5435540089       -1.2225727078        0.0000144489
 C         -2.8441105533       -0.0000015115        0.0000098143
 C         -3.5435553071        1.2225689277        0.0000105514
 C         -2.8607478844        2.4066111646        0.0000065604
 C         -1.4663398012        2.4131767076        0.0000014314
 C         -0.7293234351        1.2410395826        0.0000002627
 C          0.7293220529        1.2410403241       -0.0000049830
 C          1.4663372524        2.4131783088       -0.0000099569
 C          1.4226567663        0.0000007563       -0.0000049222
 C         -1.4226568217       -0.0000007579        0.0000050933
 H          3.3933187098        3.3466342140       -0.0000185722
 H          4.6237875013        1.2042562795       -0.0000181326
 H          4.6237887745       -1.2042513993       -0.0000133089
 H          3.3933222893       -3.3466305908       -0.0000053949
 H          0.9725853698       -3.3713938680        0.0000029120
 H         -0.9725816855       -3.3713949067        0.0000087732
 H         -3.3933186317       -3.3466342285        0.0000166845
 H         -4.6237875540       -1.2042562349        0.0000175049
 H         -4.6237888321        1.2042513295        0.0000148054
 H         -3.3933221895        3.3466306199        0.0000073174
 H         -0.9725852691        3.3713938669       -0.0000017492
 H          0.9725818122        3.3713949175       -0.0000102550
