  73
 
 C         -2.2014277790        4.9925326789       -0.0070568067
 C         -1.4760239888        3.6817613502        0.0092357698
 C         -0.0884323989        3.6244856570        0.0030504476
 C          0.5743287737        2.4149670708       -0.0029347601
 C         -0.1328666117        1.2103003297       -0.0037787999
 C         -1.5280459878        1.2581202983        0.0022713761
 C         -2.1740269322        2.4835198156        0.0082311672
 C         -2.3776045984        0.0000438363        0.0029265714
 C         -3.2038980707        0.0002522211       -1.2603704490
 C         -2.5388715224        0.0004207532       -2.4820681635
 C         -3.2393153471        0.0006436955       -3.6719467095
 C         -4.6277388937        0.0007013560       -3.6634934287
 C         -5.2981210213        0.0005243453       -2.4605010974
 C         -4.5978877020        0.0003010426       -1.2513552772
 C         -5.3757422375        0.0001327495        0.0036967692
 O         -6.5950888579        0.0001398249        0.0041337911
 C         -4.5971641469       -0.0000875103        1.2583454949
 C         -5.2967431031       -0.0002654198        2.4678986798
 C         -4.6256893436       -0.0004538696        3.6705298468
 C         -3.2372517678       -0.0004658753        3.6782166933
 C         -2.5374490941       -0.0002946465        2.4879499246
 C         -3.2031377661       -0.0001078566        1.2666151734
 C         -1.5281324645       -1.2580913616        0.0019305456
 C         -2.1741985344       -2.4834464213        0.0075376932
 C         -1.4762796367       -3.6817383711        0.0081254275
 C         -2.2017918427       -4.9924462101       -0.0084963703
 C         -0.0886854307       -3.6245590537        0.0017974661
 C          0.5741612405       -2.4150840610       -0.0038500382
 C         -0.1329487890       -1.2103678930       -0.0041452260
 N          0.5404917004       -0.0000565981       -0.0084762996
 C          1.9636267937       -0.0000835864       -0.0184861619
 C          2.6562099217        0.0011046231       -1.2189684840
 C          4.0402584580        0.0011404851       -1.2258428036
 C          4.7675875714       -0.0000212668       -0.0414636227
 C          6.2874560369       -0.0000815647       -0.0046948213
 C          6.7687870839        1.2555025362        0.7362084594
 C          6.9121953343        0.0015734324       -1.4024533531
 C          6.7686661074       -1.2574717701        0.7332162728
 C          4.0541335456       -0.0012395735        1.1556524605
 C          2.6735632729       -0.0012637015        1.1743548714
 H         -2.4216942793        5.2864832026       -1.0341852399
 H         -1.5974130326        5.7755201233        0.4457071197
 H         -3.1446458315        4.9181044493        0.5294284434
 H          0.4856578741        4.5398380702        0.0043375642
 H          1.6536955060        2.3977652998       -0.0055800647
 H         -3.2553907494        2.4979531706        0.0132525058
 H         -1.4582786782        0.0003728988       -2.4921785265
 H         -2.7042428719        0.0007719766       -4.6104004221
 H         -5.1765212786        0.0008826027       -4.5934485642
 H         -6.3773768964        0.0005654272       -2.4179804207
 H         -6.3760365162       -0.0002412080        2.4259486266
 H         -5.1739958700       -0.0005907107        4.6007653867
 H         -2.7017126936       -0.0006153271        4.6163716567
 H         -1.4568595301       -0.0003076436        2.4974040055
 H         -3.2555631523       -2.4978076194        0.0126043104
 H         -1.5977034767       -5.7756721788        0.4437552132
 H         -3.1448396412       -4.9181651524        0.5283103156
 H         -2.4224030821       -5.2859469379       -1.0356791632
 H          0.4853399698       -4.5399526661        0.0026853064
 H          1.6535292177       -2.3979546357       -0.0066827160
 H          2.1073225784        0.0020291698       -2.1494073303
 H          4.5424110632        0.0020896335       -2.1791052028
 H          6.4101733326        2.1505415146        0.2319593970
 H          6.4095743688        1.2749223480        1.7613119830
 H          7.8560150285        1.2834246022        0.7564304551
 H          6.6225020311       -0.8844296818       -1.9626887936
 H          7.9965556322        0.0015308128       -1.3133758792
 H          6.6223944574        0.8888450274       -1.9606232667
 H          7.8558913769       -1.2854840835        0.7534899865
 H          6.4100731216       -2.1512748841        0.2267658140
 H          6.4093286305       -1.2793494832        1.7582275346
 H          4.5792805790       -0.0021815350        2.0985764875
 H          2.1380268408       -0.0022110726        2.1124612490
