  34
 
 C         -2.3910614140       -3.5766304265        0.0433631029
 C         -1.0129784704       -3.6107202872       -0.0073191420
 C         -0.2838089540       -2.4303651041       -0.0240154032
 C         -0.9286939513       -1.2021522329        0.0110010755
 C         -2.3289355236       -1.1753661955        0.0609441591
 C         -3.0487887562       -2.3540756171        0.0767706087
 O         -3.0408080000       -0.0001219171        0.0961413267
 C         -2.3290198675        1.1751768717        0.0610415675
 C         -3.0489629964        2.3538309027        0.0769135892
 C         -2.3913290138        3.5764371570        0.0435623609
 C         -1.0132487643        3.6106336244       -0.0071261407
 C         -0.2839896287        2.4303345980       -0.0238693073
 C         -0.9287793352        1.2020711788        0.0111230593
 N         -0.2260089234       -0.0000152468       -0.0011082255
 C          1.1911644271        0.0000236524       -0.0617812260
 C          1.8104403939       -0.0003592560       -1.3364952446
 C          3.1686950387       -0.0003127590       -1.4742979126
 C          3.9514403591        0.0000995804       -0.3068442742
 N          5.2824152430        0.0001671104       -0.2142588877
 S          5.6887821378        0.0006764508        1.3387622327
 N          4.2168294917        0.0008183690        1.9788861443
 C          3.3219059552        0.0004688737        0.9888322428
 C          1.9227593539        0.0004373663        1.0975282369
 H         -2.9627262826       -4.4911227509        0.0572062693
 H         -0.4901245520       -4.5543695971       -0.0340656229
 H          0.7945162868       -2.4613774865       -0.0631066808
 H         -4.1248213334       -2.2969614512        0.1161517041
 H         -4.1249921234        2.2966313235        0.1162708472
 H         -2.9630634334        4.4908856838        0.0574285144
 H         -0.4904680342        4.5543240280       -0.0338595117
 H          0.7943316982        2.4614293617       -0.0629985140
 H          1.1717960251       -0.0006590023       -2.2072619953
 H          3.6479753117       -0.0005755726       -2.4397449195
 H          1.4495576356        0.0007407702        2.0662279665
