  54
 
 C         -5.6182765609        1.4154251511       -3.0376907865
 C         -4.5822801969        2.3103013539       -2.8200055309
 C         -3.5468446809        1.9407447523       -1.9804720267
 C         -3.5985455577        0.6856157579       -1.3777170245
 C         -2.5302362153        0.2469219480       -0.4722535858
 N         -1.2920297199        0.5213759106       -0.7978303775
 C         -0.3087548365       -0.0096463439       -0.0435389090
 C          1.0402043658        0.2571372274       -0.3282041087
 C          2.0051072416       -0.4081169414        0.3972419620
 N          3.3740866441       -0.1898520443        0.1875453477
 C          4.2102627893       -1.2601706509       -0.1523141410
 C          3.7142936143       -2.5288753441       -0.4270310563
 C          4.5685771716       -3.5682408879       -0.7607837865
 C          5.9297570608       -3.3536033497       -0.8435973385
 C          6.4363078518       -2.0835700713       -0.6149098506
 C          5.5880155679       -1.0433230538       -0.2812762674
 O          6.1577722748        0.1910455029       -0.1055608771
 C          5.3218094216        1.2404890019        0.1779632420
 C          5.9126255082        2.4825006497        0.3256876575
 C          5.1454728796        3.5890213542        0.6544798341
 C          3.7876469343        3.4386303440        0.8511809510
 C          3.1897878295        2.1973073227        0.6981801486
 C          3.9383660941        1.0839417912        0.3377565691
 C          1.5840935025       -1.3342235506        1.3872687022
 N          0.3438161937       -1.5774698593        1.6856172653
 C         -0.6171698816       -0.9201334747        1.0105966880
 N         -1.8890781822       -1.1014584579        1.3931087033
 C         -2.8330054123       -0.4959571290        0.7155271530
 C         -4.2038677070       -0.5653563790        1.2299601509
 C         -4.6584617070       -1.7150959137        1.8736554643
 C         -5.9614679363       -1.7370848627        2.3369647312
 C         -6.7556767540       -0.6154323814        2.1531990579
 C         -6.1972898050        0.4867727145        1.5209389128
 N         -4.9594582866        0.5186993266        1.0705470633
 N         -4.5833020909       -0.1809826120       -1.6004443878
 C         -5.5601574761        0.1802359037       -2.4073644569
 H         -6.4460481654        1.6643637622       -3.6835018443
 H         -4.5819207552        3.2791118241       -3.2989310240
 H         -2.7153956983        2.5960740938       -1.7775453201
 H          1.2903812697        0.9532259477       -1.1148107520
 H          2.6512954281       -2.7087796239       -0.3869131937
 H          4.1559197917       -4.5448512736       -0.9604661306
 H          6.5989266344       -4.1599336857       -1.0985829309
 H          7.4911782144       -1.8753333689       -0.6947533664
 H          6.9791337712        2.5579274224        0.1865957612
 H          5.6143464339        4.5537685346        0.7655834773
 H          3.1784399082        4.2847156672        1.1289454981
 H          2.1308756347        2.0970877973        0.8760855922
 H          2.3265401971       -1.8692745816        1.9665023344
 H         -3.9924304674       -2.5540989021        1.9914709265
 H         -6.3528741648       -2.6126270556        2.8349520457
 H         -7.7781695655       -0.5913672035        2.4970502049
 H         -6.7681725673        1.3942549184        1.3693428057
 H         -6.3341288379       -0.5618379780       -2.5574501763
