  90
 
 C         -9.7723175687        3.6616509276       -0.6371945322
 C         -8.5621572184        3.6959091296        0.0525964071
 C         -7.6913583560        2.6235544840        0.0361674881
 C         -8.0558760074        1.5048612955       -0.6995956375
 C         -9.2923805901        1.4516741949       -1.3835402633
 C        -10.1506091685        2.5430539536       -1.3520453127
 C         -9.3667245288        0.1525274904       -1.9904644939
 C        -10.3125191948       -0.4772277724       -2.7888284625
 C        -10.0565006938       -1.7592840884       -3.2318036530
 C         -8.8691926041       -2.4083915815       -2.8996601598
 C         -7.9132074725       -1.8032393524       -2.1068839752
 C         -8.1743330506       -0.5225746157       -1.6407027658
 N         -7.3917514673        0.3063883339       -0.8632999688
 C         -6.1327596575       -0.0137167726       -0.3327072139
 C         -5.0558922983        0.8552205586       -0.5425067616
 C         -3.8019772785        0.5876161203       -0.0307529220
 C         -3.6307857788       -0.5814356282        0.6938071689
 C         -4.7053527527       -1.4729497406        0.8972724208
 C         -5.9631576914       -1.1860386971        0.3904463744
 C         -4.1931304326       -2.5697265811        1.6728157707
 C         -4.7843277158       -3.7082368722        2.2019328923
 C         -4.0114161761       -4.5594514241        2.9666368821
 C         -2.6754409556       -4.2678561083        3.2243979527
 C         -2.0660423375       -3.1405225193        2.7035749719
 C         -2.8240940113       -2.3032499617        1.8981721753
 N         -2.4844052149       -1.1067098750        1.2786819199
 C         -1.2231470340       -0.5485885538        1.2075776779
 C         -0.0563014672       -1.3206557143        1.1362344864
 N          1.1369708324       -0.7679842804        1.1488839977
 C          1.2227379458        0.5637867981        1.2000155512
 N          2.4839658052        1.1229003204        1.2638786330
 C          2.8237069986        2.3265323525        1.8694041697
 C          2.0652199421        3.1738870878        2.6637698044
 C          2.6747912879        4.3068725545        3.1719604965
 C          4.0113422515        4.5943517279        2.9125577409
 C          4.7845375554        3.7336934779        2.1587936713
 C          4.1931347391        2.5894981668        1.6423161290
 C          4.7053910105        1.4834717974        0.8800541982
 C          5.9633389257        1.1901154203        0.3772962872
 C          6.1327731087        0.0094284116       -0.3321446201
 N          7.3918957191       -0.3171284075       -0.8585309749
 C          8.0561691615       -1.5133739445       -0.6799879746
 C          7.6915863255       -2.6230170808        0.0693146973
 C          8.5626157376       -3.6948908155        0.0992587640
 C          9.7730202251       -3.6688476544       -0.5904700504
 C         10.1512847392       -2.5590960151       -1.3189962613
 C          9.2928380399       -1.4683705266       -1.3642345526
 C          9.3670665337       -0.1767808560       -1.9871010745
 C         10.3128408998        0.4432915018       -2.7930379027
 C         10.0566226546        1.7197470066       -3.2517961310
 C          8.8691849213        2.3727104908       -2.9277619916
 C          7.9132183605        1.7771825440       -2.1277121225
 C          8.1744931348        0.5023576217       -1.6458802725
 C          5.0556703023       -0.8614624049       -0.5324061265
 C          3.8015676971       -0.5873165258       -0.0245829773
 C          3.6305167074        0.5901766469        0.6862122230
 C          0.0559307395        1.3348138000        1.1181939393
 N         -1.1373490578        0.7823641367        1.1383784412
 H        -10.4241942604        4.5219081290       -0.6015764469
 H         -8.3005668462        4.5796821380        0.6158941590
 H         -6.7633373874        2.6523779515        0.5871702640
 H        -11.0951134663        2.5107249431       -1.8740756645
 H        -11.2259858076        0.0313600471       -3.0581924679
 H        -10.7798150385       -2.2676634515       -3.8519687204
 H         -8.6906707614       -3.4060949944       -3.2732422974
 H         -6.9886636219       -2.3076249098       -1.8685958850
 H         -5.2161771254        1.7484463814       -1.1269981534
 H         -2.9809075396        1.2668690851       -0.1879567928
 H         -6.7959266478       -1.8501787229        0.5620521013
 H         -5.8288502940       -3.9134044793        2.0243280199
 H         -4.4488383863       -5.4525204620        3.3864948757
 H         -2.1000725650       -4.9325296728        3.8512261879
 H         -1.0387962775       -2.9188474180        2.9469834310
 H         -0.0810142945       -2.3947924413        1.0240967264
 H          1.0374777242        2.9558915943        2.9084006672
 H          2.0991083721        4.9793773140        3.7900857291
 H          4.4489329828        5.4919334926        3.3224966118
 H          5.8294140903        3.9360278603        1.9800290287
 H          6.7963368013        1.8558242022        0.5415663478
 H          6.7633219712       -2.6452397871        0.6202189272
 H          8.3010305519       -4.5717282617        0.6732957295
 H         10.4251087588       -4.5284257376       -0.5439692564
 H         11.0959577933       -2.5330158482       -1.8410722449
 H         11.2264240070       -0.0684033382       -3.0560486030
 H         10.7798950797        2.2205713687       -3.8781272444
 H          8.6905621147        3.3657366395       -3.3135583472
 H          6.9885926552        2.2843092663       -1.8956289404
 H          5.2159358633       -1.7615040569       -1.1063568974
 H          2.9802311048       -1.2679167760       -0.1744413479
 H          0.0806749287        2.4073349622        0.9914923257
