  107
 
 O         -9.5167210767        0.6295445640       -1.9432023020
 P         -8.4516685623       -0.1253157583       -1.2503473562
 C         -6.8165362379        0.1354918984       -2.0180585837
 C         -6.1147707341       -0.8600423367       -2.6790160609
 C         -4.8855712927       -0.5702600683       -3.2467736757
 C         -4.3618483418        0.7090383351       -3.1601510472
 C         -5.0730985526        1.7099389850       -2.5169892986
 C         -6.3009011023        1.4235822854       -1.9501829359
 C         -8.7754092780       -1.9137373099       -1.2106264064
 C         -7.9553803900       -2.8154200930       -0.5389348647
 C         -8.2851367311       -4.1576281696       -0.5188060470
 C         -9.4310851448       -4.6058986294       -1.1597083176
 C        -10.2527492542       -3.7078419930       -1.8230931953
 C         -9.9264874670       -2.3639672498       -1.8459849874
 C         -8.2723566237        0.4001976929        0.4795536977
 C         -9.3579120639        1.0001307380        1.1011136649
 C         -9.2751606196        1.4224280972        2.4140859709
 C         -8.0927402795        1.2295241661        3.1250030599
 C         -7.0007528190        0.6364819320        2.5237548351
 C         -7.0783090541        0.2171767245        1.1973415265
 O         -6.0664871531       -0.4299089102        0.5530546627
 C         -4.7698304824       -0.0443716350        0.6694423934
 C         -4.3452524117        1.2260323431        1.1179357347
 C         -3.0230596295        1.5409839526        1.1475464779
 C         -2.0023829993        0.6243493642        0.7105983947
 C         -0.6380001348        0.9621407018        0.7261243591
 C          0.3409430437        0.2328316410       -0.0308144995
 C          1.6566458431        0.5836321076       -0.0335548823
 C          2.1365820276        1.6579054157        0.7442935590
 C          3.5764080994        2.0900537892        0.6627795371
 C          4.5364942334        0.9419778937        0.4518213155
 C          4.3535456098       -0.2554954325        1.1372205324
 C          5.2441397563       -1.2996924114        0.9890851482
 C          6.3423396536       -1.1649456888        0.1436622214
 N          7.2389540795       -2.2296907605       -0.0280872027
 C          6.8968349906       -3.5238247806       -0.3641487003
 C          5.6474277604       -4.0657791791       -0.6346953798
 C          5.5848192966       -5.4036543389       -0.9767506002
 C          6.7336428883       -6.1875815321       -1.0584460199
 C          7.9825659033       -5.6478889337       -0.8129062030
 C          8.0709709524       -4.3063607899       -0.4681265746
 C          9.1721645709       -3.4292790769       -0.1742889667
 C         10.5464360161       -3.6101410553       -0.1042932181
 C         11.3400232007       -2.5294451242        0.2329485566
 C         10.7774638575       -1.2862346997        0.5144516854
 C          9.4118262634       -1.0815051827        0.4514194486
 C          8.6119633474       -2.1568796932        0.0882855780
 C          6.5399566679        0.0352405252       -0.5327783309
 C          5.6476120466        1.0775347771       -0.3716444437
 C          4.0358364885        2.8939055351        1.8675492078
 C          4.2262558295        2.4660972821        3.1633189210
 C          4.6710856307        3.3819196739        4.1089882415
 C          4.9234115260        4.6998165928        3.7578542487
 C          4.7367466757        5.1349873972        2.4557962754
 C          4.2916949258        4.2261913985        1.5077941032
 C          4.0111095072        4.3872238050        0.0923484782
 C          4.0815258788        5.5017626693       -0.7291721754
 C          3.7577405151        5.3630466953       -2.0685646909
 C          3.3663801364        4.1328665578       -2.5816558903
 C          3.2851194968        3.0148431972       -1.7641704640
 C          3.6172903528        3.1445258348       -0.4310787880
 C          1.1954566264        2.3940664696        1.4908133314
 C         -0.1283786653        2.0725247880        1.4828447195
 C         -2.4761082673       -0.6481472592        0.2304257491
 C         -3.7952859604       -0.9671469853        0.2193701289
 H         -6.5278173214       -1.8574002847       -2.7394725055
 H         -4.3334529121       -1.3475042186       -3.7548856314
 H         -3.3979852378        0.9287717373       -3.5947723363
 H         -4.6677769232        2.7093355846       -2.4535328999
 H         -6.8754283735        2.1898226896       -1.4433011454
 H         -7.0655699663       -2.4596950193       -0.0433336750
 H         -7.6476916244       -4.8592231979       -0.0002478826
 H         -9.6843345535       -5.6556990325       -1.1398959336
 H        -11.1464620885       -4.0545555866       -2.3213310440
 H        -10.5504994941       -1.6426821682       -2.3555177811
 H        -10.2584542838        1.1433767585        0.5198149219
 H        -10.1215007505        1.8954908948        2.8876007410
 H         -8.0274865407        1.5401578469        4.1567358632
 H         -6.0903425036        0.4648289883        3.0801061943
 H         -5.0863412634        1.9609116652        1.3977516333
 H         -2.7389331587        2.5363654493        1.4477814897
 H          0.0198542733       -0.5837415035       -0.6572431523
 H          2.3543238003        0.0261332335       -0.6426636655
 H          3.5005925398       -0.3711600929        1.7898033319
 H          5.1015211699       -2.2193881186        1.5367018434
 H          4.7536507331       -3.4624445120       -0.5893362241
 H          4.6245151942       -5.8501055972       -1.1893621031
 H          6.6435982649       -7.2298949143       -1.3268184387
 H          8.8729389457       -6.2533889737       -0.8917093767
 H         10.9831678229       -4.5765524014       -0.3064808948
 H         12.4119584369       -2.6490590572        0.2894277751
 H         11.4222961568       -0.4649362002        0.7909184662
 H          8.9830678418       -0.1193816742        0.6873995967
 H          7.3833741312        0.1400843828       -1.1988058573
 H          5.8096985249        2.0025058651       -0.9048106893
 H          4.0332390246        1.4418314625        3.4451634209
 H          4.8228841095        3.0622976420        5.1297376012
 H          5.2695284313        5.3945908810        4.5096659717
 H          4.9343084863        6.1617593843        2.1854165108
 H          4.3819212175        6.4604021828       -0.3325170276
 H          3.8070744094        6.2214382513       -2.7230526154
 H          3.1199581488        4.0458942380       -3.6299159561
 H          2.9735048643        2.0627525264       -2.1675685187
 H          1.5386757973        3.2272767722        2.0877574778
 H         -0.8045965940        2.6443940889        2.0978794223
 H         -1.7621765181       -1.3876995124       -0.0921743910
 H         -4.1340939360       -1.9300787346       -0.1311600740
