  97
 
 F         -3.0998471102       -5.5241876175       -1.9459901479
 C         -4.3086300088       -5.2784361949       -1.4037990862
 F         -5.2057354363       -5.7156829384       -2.3258639439
 F         -4.4286569832       -6.1257000934       -0.3649688392
 C         -4.5111087938       -3.8475609607       -1.0336615813
 C         -3.9325393914       -2.8450751305       -1.8145952492
 C         -4.1354834977       -1.5229162463       -1.4930183119
 C         -4.9316337945       -1.1794743645       -0.3907826540
 N         -5.1209738702        0.1605478706       -0.0600687963
 C         -4.0915009450        1.1073293028        0.1492577182
 C         -2.7099960471        0.8736216499        0.2257559243
 C         -2.0911667038       -0.3951267608        0.4084647603
 C         -0.7342275708       -0.5145748936        0.4607738708
 C          0.1273285286        0.6038197578        0.3500876941
 C          1.5590272984        0.4547293197        0.3753990166
 C          2.4026247807        1.4988578078        0.8055951854
 C          3.7684197532        1.3545169837        0.8319208378
 C          4.3558578794        0.1562836921        0.4212157491
 N          5.7512923497        0.0058824712        0.4226294383
 C          6.4758762756       -1.0247362313        0.9782326353
 C          5.9293112042       -2.1166076530        1.7641562259
 C          4.8170185852       -1.9620583041        2.5920367218
 C          4.3470750185       -3.0328627564        3.3293145881
 C          4.9806355930       -4.2633426775        3.2612657862
 C          6.1028048740       -4.4171397670        2.4614310373
 C          6.5778064802       -3.3526995084        1.7208937246
 N          7.7575795111       -0.8737061082        0.7478936593
 C          7.9061910091        0.2764813947        0.0372296281
 C          9.2186650062        0.6964090316       -0.4221950655
 C          9.3890234585        1.4903564068       -1.5571746169
 C         10.6567419641        1.8606314367       -1.9639067570
 C         11.7714729481        1.4420147423       -1.2541957567
 C         11.6126460181        0.6361737163       -0.1371529600
 C         10.3485979524        0.2627424902        0.2746933027
 C          6.6554904768        0.8549218837       -0.1666847566
 C          6.2701378051        2.0848562725       -0.8463778682
 C          6.9200941534        3.2806234454       -0.5387735630
 C          6.5575408979        4.4541240800       -1.1720593251
 C          5.5439821995        4.4520145675       -2.1176759855
 C          4.8975541256        3.2676474741       -2.4323396233
 C          5.2548577528        2.0900716028       -1.8021502984
 C          3.5414129617       -0.8924672071       -0.0141139924
 C          2.1765387078       -0.7458753456       -0.0313603756
 C         -0.4914376771        1.8748242696        0.2350272430
 C         -1.8440137333        2.0074008109        0.1798177676
 N         -4.6141731664        2.3273207306        0.3762811613
 C         -5.9317656655        2.1870038766        0.3824383743
 C         -6.9085313606        3.1847929899        0.6720055670
 C         -6.5244520088        4.4755941879        1.0458455102
 C         -7.4742225547        5.4161085322        1.3786937133
 C         -8.8180232941        5.0624661294        1.3503707363
 C         -9.2077274743        3.7921015395        0.9732899412
 C         -8.2719182977        2.8164533012        0.6084263121
 C         -8.6497955450        1.4870761049        0.1501915882
 C         -9.9860090233        1.1454069329       -0.0633732195
 C        -10.3623495035       -0.0889686123       -0.5538307506
 C         -9.3907220244       -1.0330707149       -0.8803011868
 C         -8.0661069049       -0.7460739249       -0.6772188205
 C         -7.6552962738        0.4946015100       -0.1386737727
 C         -6.3095208150        0.8432280570        0.0822956722
 C         -5.5150527476       -2.1926520135        0.3833724290
 C         -5.3064865364       -3.5151029779        0.0650358994
 H         -3.3278374104       -3.1123791127       -2.6673117018
 H         -3.6885799492       -0.7418062657       -2.0879518710
 H         -2.6994929900       -1.2701569011        0.5687154612
 H         -0.3084921301       -1.4899386537        0.6426607318
 H          1.9716752530        2.4211319184        1.1612860529
 H          4.3951961530        2.1605126026        1.1842106917
 H          4.3305607766       -1.0017880687        2.6766732064
 H          3.4839355433       -2.9027506572        3.9655907133
 H          4.6070156023       -5.0967399153        3.8375066487
 H          6.6072359353       -5.3710424325        2.4145440372
 H          7.4509812722       -3.4553490503        1.0949447485
 H          8.5283335446        1.8029206491       -2.1290569716
 H         10.7762742474        2.4754288753       -2.8444227180
 H         12.7599276367        1.7363135806       -1.5754737161
 H         12.4788205100        0.2998924044        0.4143045954
 H         10.2092101236       -0.3658417593        1.1410208717
 H          7.7068486578        3.2787865976        0.2018149191
 H          7.0656362620        5.3744539106       -0.9242034431
 H          5.2605361784        5.3706163449       -2.6095212853
 H          4.1111048162        3.2588765910       -3.1727008876
 H          4.7559241774        1.1672448062       -2.0610370543
 H          3.9976002713       -1.8132180935       -0.3482307276
 H          1.5715717586       -1.5565958856       -0.4056934509
 H          0.1253083967        2.7557193095        0.1449730521
 H         -2.3042536506        2.9764242247        0.0696531337
 H         -5.4696370000        4.7013361152        1.0725319777
 H         -7.1795284257        6.4136560926        1.6676390879
 H         -9.5700211414        5.7878111308        1.6250503871
 H        -10.2615245785        3.5649448822        0.9727849631
 H        -10.7621725191        1.8644454615        0.1420528953
 H        -11.4075658633       -0.3135311660       -0.7034655087
 H         -9.6782713174       -1.9862368771       -1.2984677379
 H         -7.3209158361       -1.4703910295       -0.9602512913
 H         -6.1193818981       -1.9268220194        1.2371978041
 H         -5.7432393850       -4.2962313965        0.6677952091
