  91
 
 C          0.9987522970       -4.0077731769        3.1079636165
 C          0.5277270378       -2.7581150038        3.4797144503
 C          0.2925824925       -1.7739874095        2.5281935801
 C          0.5503919256       -2.0654410658        1.2080171806
 C          1.0313012731       -3.3276482474        0.8253121690
 C          1.2564183415       -4.3056022938        1.7788785086
 C          1.2485602523       -3.3231547594       -0.6153387205
 C          1.7497097759       -4.2935344892       -1.4654756870
 C          1.8987835441       -3.9845229667       -2.8089009535
 C          1.5561863646       -2.7321852238       -3.2938109962
 C          1.0441972972       -1.7562608445       -2.4478724554
 C          0.8979269817       -2.0571810900       -1.1131661251
 C          0.3161092017       -1.1925568904       -0.0124665914
 C          0.9587673996        0.1716229252        0.0665215899
 C          0.1798912191        1.3162023560        0.1317988991
 C          0.7971791170        2.5847390179        0.0141711826
 C          2.1433716690        2.7108409749       -0.1144930650
 C          2.9738183243        1.5723788145       -0.0705044459
 C          4.3712018035        1.7051285414       -0.1422788652
 C          5.2036577866        0.6134928809       -0.0829106601
 C          6.6623619841        0.7544577546       -0.1735997351
 C          7.4126115456       -0.1786370354       -0.9233841707
 C          8.7678277327       -0.0649255743       -1.0293191960
 C          9.4608576530        0.9828949283       -0.3869976540
 C         10.8602525076        1.1262855769       -0.4738933511
 C         11.4975349450        2.1548410411        0.1621039903
 C         10.7637377274        3.0860043738        0.9140444122
 C          9.4059102237        2.9737717061        1.0175523237
 C          8.7175441356        1.9245901566        0.3719317255
 C          7.3193896807        1.7844115232        0.4572753462
 C          4.6160933115       -0.6562901720        0.0834675798
 C          3.2613479178       -0.8122458129        0.1469341477
 C          2.3784889158        0.2861728692        0.0413645779
 C         -1.2713847741        1.2430230897        0.2794316983
 C         -2.0325485693        2.3318558224        0.6518058134
 C         -3.4258601098        2.2664287736        0.6890520533
 C         -4.0938666064        1.1226512492        0.3282346214
 C         -5.5707109773        1.1106357689        0.3214166086
 C         -6.2466765407        1.2237967563        1.4935189073
 C         -7.6664691689        1.2044806465        1.5466667333
 C         -8.3319299211        1.3051263755        2.7793420385
 C         -9.7004497095        1.2732547739        2.8452646977
 C        -10.4431219104        1.1366441052        1.6719044094
 C         -9.8128513121        1.0381689789        0.4557717929
 C         -8.4130713379        1.0714709451        0.3528154548
 C         -7.7082380598        0.9841460553       -0.9038084938
 C         -8.3727259221        0.8836523041       -2.1371501727
 C         -7.6829408175        0.8206411079       -3.3221276550
 C         -6.2892130408        0.8639315631       -3.3269360725
 C         -5.6088947007        0.9591405144       -2.1407650601
 C         -6.2928393388        1.0096096818       -0.9145102115
 C         -3.3505614839       -0.0452139929        0.0138340232
 C         -3.9894233367       -1.2670444127       -0.2727836073
 C         -3.2509408669       -2.3871849050       -0.5311575549
 C         -1.8558506326       -2.3418185495       -0.4770199666
 C         -1.1932823312       -1.1697573460       -0.1945397652
 C         -1.9306363969        0.0099933595        0.0282917791
 H          1.1696769638       -4.7589862204        3.8652376749
 H          0.3386053547       -2.5477555994        4.5220475984
 H         -0.0806791201       -0.8019196334        2.8162710780
 H          1.6263721805       -5.2797225513        1.4947561350
 H          2.0209675062       -5.2698196222       -1.0914948686
 H          2.2904942667       -4.7291326983       -3.4865493155
 H          1.6867549166       -2.5125278156       -4.3431855760
 H          0.7734992600       -0.7815697040       -2.8270074035
 H          0.1819321337        3.4694273692       -0.0185119253
 H          2.5966833703        3.6838003519       -0.2395362104
 H          4.7844426824        2.6969213256       -0.2616973440
 H          6.8921752747       -0.9760236818       -1.4339327161
 H          9.3328397229       -0.7789756508       -1.6121504529
 H         11.4206200649        0.4064025129       -1.0538911626
 H         12.5704860344        2.2591653263        0.0915214557
 H         11.2839026680        3.8924261533        1.4104024849
 H          8.8371107534        3.6885445285        1.5956049168
 H          6.7644031608        2.4961632141        1.0523039810
 H          5.2555977206       -1.5203754099        0.1913860466
 H          2.8742239967       -1.7998767237        0.3145592163
 H         -1.5654591671        3.2636563968        0.9291821847
 H         -3.9895182511        3.1439964883        0.9726546107
 H         -5.7011799949        1.3096378857        2.4234490451
 H         -7.7414324908        1.4068822173        3.6790150078
 H        -10.2057940332        1.3508851596        3.7967049759
 H        -11.5218886951        1.1082212039        1.7224186618
 H        -10.4186359219        0.9323305336       -0.4303010448
 H         -9.4504876529        0.8591717311       -2.1666151065
 H         -8.2210802998        0.7437858919       -4.2557169775
 H         -5.7509194336        0.8251041826       -4.2624331001
 H         -4.5297518369        0.9997496781       -2.1383072029
 H         -5.0681649340       -1.3079142391       -0.2739644118
 H         -3.7396397466       -3.3237498825       -0.7555177280
 H         -1.3021599724       -3.2533257689       -0.6440872071
