  110
 
 N          1.4339118511        9.8941508334        1.7852087192
 C          0.9137868445        8.8869149600        1.6042612359
 C          0.2766077909        7.6524808331        1.3781403164
 N          0.9992688697        6.5581068576        1.1427236275
 C          0.3893669230        5.3820284371        0.9248276174
 C          1.1551672347        4.2122421217        0.6644278830
 C          2.5615839387        4.2793977620        0.6836351030
 C          3.3261799506        3.1636424975        0.4874477927
 C          2.7004112499        1.9310875086        0.2283274865
 N          3.4580071531        0.7692968639        0.0494726121
 C          3.1978478468       -0.4516393691        0.6420342100
 C          2.2347762195       -0.8021392559        1.5790405853
 C          2.2123166447       -2.1056022159        2.0307345201
 C          3.1240137957       -3.0684618220        1.5783120665
 C          3.0575565499       -4.4475268187        2.0826149401
 C          2.7869234489       -4.7058410286        3.4251594973
 C          2.7466006753       -6.0034602710        3.8992513869
 C          2.9711904986       -7.0667218115        3.0402460004
 C          3.2325479140       -6.8229932663        1.7015479757
 C          3.2761001858       -5.5256583968        1.2266603573
 C          4.1062760366       -2.7033958881        0.6629928018
 C          4.1507141628       -1.3988857546        0.2016335453
 C          5.0287036497       -0.7032984570       -0.7015388263
 C          6.1273842398       -1.0972768264       -1.4456031769
 C          6.7556565357       -0.1706116128       -2.2713430861
 C          7.9270125165       -0.5620327904       -3.0678347686
 C          8.9155219766       -1.3768294694       -2.5190936527
 C         10.0197655370       -1.7441557717       -3.2646926847
 C         10.1530403336       -1.3095428756       -4.5729221268
 C          9.1749705033       -0.5027254999       -5.1301791384
 C          8.0727826792       -0.1293881128       -4.3843874847
 C          6.2579662345        1.1372781890       -2.3472059059
 C          5.1681446085        1.5522689875       -1.6096638305
 C          4.5621154882        0.6300475514       -0.7674157189
 C          1.3235088661        1.8558629270        0.1694979436
 C          0.5161370390        2.9740640805        0.4052368106
 C         -0.9199418054        2.9012983429        0.4303739583
 C         -1.6169837302        1.7112473045        0.1995413784
 C         -2.9901851933        1.6377772918        0.3229753290
 N         -3.6191994039        0.4012878870        0.1523896647
 C         -4.7344042848        0.1393971191       -0.6180534263
 C         -5.5155063507        0.9999838553       -1.3772798813
 C         -6.5802061328        0.4648920608       -2.0729488805
 C         -6.8749031830       -0.9050043504       -2.0477669939
 C         -8.0243665015       -1.4243759872       -2.8015632480
 C         -9.2335953785       -0.7318947084       -2.8203382103
 C        -10.3157015852       -1.2232840711       -3.5259072084
 C        -10.2075564792       -2.4112542942       -4.2296005372
 C         -9.0099694972       -3.1068614309       -4.2203467707
 C         -7.9284356582       -2.6202712410       -3.5106073292
 C         -6.0650654648       -1.7677466814       -1.3159573278
 C         -4.9968666530       -1.2505893504       -0.6038141158
 C         -3.9787586025       -1.8514450360        0.2172936149
 C         -3.7040890664       -3.1575655676        0.5869714161
 C         -2.6103343067       -3.4151162891        1.4071905033
 C         -2.2608641381       -4.7917901544        1.7828411943
 C         -0.9284936524       -5.2009724605        1.8085753034
 C         -0.5972753823       -6.4973584373        2.1543127785
 C         -1.5896690334       -7.4041126168        2.4875005896
 C         -2.9168586633       -7.0083530875        2.4677165167
 C         -3.2508121514       -5.7144302169        2.1151048286
 C         -1.8373599910       -2.3477709767        1.8832083899
 C         -2.0990599872       -1.0396973748        1.5348737944
 C         -3.1539999151       -0.7947063508        0.6652308093
 C         -3.7287375219        2.7919333884        0.6384297099
 C         -3.0767334663        3.9803229403        0.8160470524
 C         -1.6735372058        4.0632666165        0.7316784262
 C         -1.0238515104        5.3068896576        0.9630699587
 N         -1.7425834283        6.4114746657        1.2193750068
 C         -1.1286195473        7.5773101818        1.4180155803
 C         -1.8800631267        8.7372624011        1.6837911894
 N         -2.4938293335        9.6836604908        1.8969522478
 H          3.0177209001        5.2360524653        0.8874536261
 H          4.4017836589        3.2119363933        0.5562222076
 H          1.5308568493       -0.0782249905        1.9604227107
 H          1.4604743160       -2.3973403190        2.7486888097
 H          2.6333872438       -3.8821558494        4.1070253371
 H          2.5417041452       -6.1872269711        4.9437751109
 H          2.9399121388       -8.0804756768        3.4116113500
 H          3.3996144756       -7.6483461012        1.0245326745
 H          3.4623544290       -5.3439397911        0.1780743665
 H          4.8435768571       -3.4209762626        0.3367182524
 H          6.4754621381       -2.1182427181       -1.4052265427
 H          8.8261961458       -1.7040481370       -1.4932466367
 H         10.7815641462       -2.3702101641       -2.8231827666
 H         11.0151837114       -1.5982951200       -5.1555826414
 H          9.2711224295       -0.1646441411       -6.1517496826
 H          7.3047509563        0.4848421310       -4.8316747521
 H          6.7555884750        1.8469537265       -2.9909303591
 H          4.7969905951        2.5616714471       -1.6985340152
 H          0.8799674506        0.9035309482       -0.0713873248
 H         -1.0882505495        0.8187760039       -0.0924093239
 H         -5.2932931918        2.0540512131       -1.4400343895
 H         -7.1914745725        1.1172310760       -2.6783630168
 H         -9.3303140492        0.1860472924       -2.2588884957
 H        -11.2486437225       -0.6785717247       -3.5257592058
 H        -11.0526884657       -2.7931143211       -4.7828463328
 H         -8.9182914094       -4.0317357845       -4.7711884822
 H         -6.9915131879       -3.1581750445       -3.5230114812
 H         -6.2771723210       -2.8256844661       -1.2876837026
 H         -4.3171717891       -3.9674697923        0.2221295962
 H         -0.1477046558       -4.5068977450        1.5320541554
 H          0.4393156723       -6.7990666784        2.1626121664
 H         -1.3294973126       -8.4159360935        2.7608690849
 H         -3.6945671220       -7.7108227344        2.7303032658
 H         -4.2863337012       -5.4061591665        2.1185948502
 H         -1.0261564393       -2.5590333289        2.5629710269
 H         -1.5073062730       -0.2342012614        1.9424297724
 H         -4.7983603966        2.7252081500        0.7616243667
 H         -3.6208416148        4.8813724739        1.0545691613
