  127
 
 C          9.7652871353        5.1680234340        5.5048211552
 C          8.8897293858        5.4277607696        4.5405328436
 C          8.8432188560        4.8250117120        3.2132604710
 C          9.7521496527        3.8569987211        2.7812556426
 C          9.6569882280        3.3088699861        1.5183982904
 C          8.6567143447        3.7141956038        0.6416942932
 C          8.5700124348        3.1172994580       -0.7420497654
 O          7.2749396196        3.1479394764       -1.3091176420
 C          6.2943603612        2.3853300305       -0.7538134819
 C          6.4401514357        1.5598335602        0.3520585180
 C          5.3583233677        0.8416347392        0.8523639140
 C          4.1073723346        0.8913582363        0.2704062942
 C          3.9595094908        1.6881196450       -0.8573647275
 C          5.0319291279        2.4517213422       -1.3581733528
 C          4.5255972289        3.2070675970       -2.4699521403
 C          5.1092757979        4.1038557612       -3.3551971384
 C          4.3267196569        4.6484884158       -4.3548628247
 C          2.9869267556        4.2939626681       -4.4876469093
 C          2.3877583449        3.4020179344       -3.6168391792
 C          3.1581987121        2.8754414593       -2.5918814699
 N          2.8254432435        1.9495684648       -1.6134339860
 C          1.5725461843        1.3800551468       -1.4122887759
 C          1.4609995833        0.0087521226       -1.1825264214
 C          0.2250846063       -0.5702685565       -0.9381417760
 N          0.1336886903       -1.9442882079       -0.7172585075
 C          0.6369953738       -2.9317933008       -1.5499131316
 C          1.3042420194       -2.8133788990       -2.7590470189
 C          1.6722855899       -3.9786375330       -3.4071432118
 C          1.3786059333       -5.2307782937       -2.8728234253
 C          0.6962947337       -5.3541436496       -1.6779337615
 C          0.3169134046       -4.1969034571       -1.0099250941
 C         -0.3993291462       -3.9505127420        0.2101586598
 C         -0.9433135328       -4.7984709115        1.1845517374
 O         -0.8161265155       -6.1325098396        0.9693445778
 C         -1.3538108100       -7.0372895755        1.9269242073
 C         -1.0822355498       -8.4296143732        1.4247408781
 C         -1.9550545628       -9.0373279531        0.5296130838
 C         -1.6980450359      -10.3025115914        0.0409397729
 C         -0.5548325536      -11.0025990494        0.4309611181
 C         -0.2379358818      -12.3438479402       -0.0470493450
 C         -0.9829561919      -13.1030585931       -0.8422903326
 C          0.3213530523      -10.3788673742        1.3217447585
 C          0.0638288068       -9.1129397311        1.8100794140
 C         -1.5549387317       -4.2120975955        2.2844158891
 C         -1.6096863890       -2.8275754804        2.4204637631
 C         -1.0803253358       -1.9766454296        1.4726746356
 C         -0.4963954048       -2.5534623588        0.3539686309
 C         -0.9344611201        0.2282002277       -0.9425568379
 C         -2.2083753033       -0.3657387024       -0.8493784035
 N         -3.2488343247       -0.8518244571       -0.8413447517
 C         -0.8187321896        1.6137707453       -1.1639080798
 N         -1.9560243045        2.4228153578       -1.1452701111
 C         -2.3562404018        3.2732741977       -2.1625388136
 C         -1.7889367854        3.4865735744       -3.4084207723
 C         -2.4125455163        4.3820205744       -4.2577236863
 C         -3.5805464463        5.0414142684       -3.8829188153
 C         -4.1666745702        4.8099970681       -2.6534590081
 C         -3.5549629242        3.9161695946       -1.7838536282
 C         -3.8817442102        3.4285370016       -0.4730967972
 C         -4.9271436492        3.7109518617        0.4159535281
 O         -5.8518338653        4.6171656940       -0.0022819567
 C         -6.9128454010        4.9639716638        0.8662173221
 C         -7.9093176918        3.8553050480        1.1037210609
 C         -8.6764921960        3.8392778253        2.2633240190
 C         -9.6037191445        2.8406626433        2.4810258312
 C         -9.7892755092        1.8186834760        1.5478104758
 C        -10.7477837031        0.7348531486        1.7317966429
 C        -11.6247061050        0.6056610452        2.7207721381
 C         -9.0112989592        1.8432476366        0.3888788591
 C         -8.0919885517        2.8489314138        0.1649107436
 C         -4.9282309620        3.0616015040        1.6423301730
 C         -3.9096324158        2.1768045987        1.9839591703
 C         -2.8678072468        1.8905488508        1.1260349175
 C         -2.8785241786        2.5068019686       -0.1166616792
 C          0.4268567578        2.1759237533       -1.4003401502
 C          7.7556110000        4.6858476078        1.0560546904
 C          7.8452319404        5.2266864061        2.3233867176
 H         10.5636524553        4.4542655132        5.3942539787
 H          9.7126333030        5.6700864026        6.4560319455
 H          8.1122689651        6.1600541560        4.7248665567
 H         10.5387794656        3.5234092984        3.4397502024
 H         10.3661522291        2.5548443187        1.2057992857
 H          9.1762471925        3.7129593465       -1.4354042757
 H          8.9630665885        2.0915234378       -0.7406856514
 H          7.3887627934        1.4820800097        0.8575592489
 H          5.5076422830        0.2292663601        1.7290451050
 H          3.2815127082        0.3434861801        0.6946804713
 H          6.1532625996        4.3555713358       -3.2561358562
 H          4.7592805690        5.3505471233       -5.0522640322
 H          2.4016199257        4.7203688412       -5.2889714600
 H          1.3549568289        3.1214795155       -3.7470927328
 H          2.3408112870       -0.6143198907       -1.1968543718
 H          1.5233398332       -1.8481765728       -3.1903340360
 H          2.1957039337       -3.9138789289       -4.3496444384
 H          1.6835881346       -6.1176927603       -3.4082483822
 H          0.4522257218       -6.3199604574       -1.2642343303
 H         -2.4347034388       -6.8709274995        2.0288034659
 H         -0.8710935783       -6.8787212869        2.9005174931
 H         -2.8433872334       -8.5093830401        0.2131446707
 H         -2.3931079490      -10.7480444481       -0.6534511772
 H          0.7090968719      -12.7326551644        0.3085241781
 H         -1.9362875623      -12.7859250335       -1.2289420858
 H         -0.6593538929      -14.0868054704       -1.1376703894
 H          1.2163629961      -10.8979225530        1.6350862931
 H          0.7574341838       -8.6496235760        2.4972403580
 H         -1.9917898088       -4.8212023570        3.0593391430
 H         -2.0802073895       -2.4124045945        3.2991549561
 H         -1.1190436225       -0.9073128692        1.6058765114
 H         -0.8990126952        2.9588172041       -3.7153253832
 H         -1.9873090294        4.5686988144       -5.2327857852
 H         -4.0388329409        5.7350501617       -4.5722274880
 H         -5.0816332997        5.3020219148       -2.3637268115
 H         -7.4104545841        5.7974205575        0.3553548593
 H         -6.5190683940        5.3359439507        1.8218100101
 H         -8.5423015793        4.6176004573        3.0018285815
 H        -10.1821525941        2.8511535857        3.3915975395
 H        -10.7171924653       -0.0231650885        0.9579035284
 H        -11.7174002353        1.3232714404        3.5179985900
 H        -12.2950470401       -0.2359284115        2.7654989905
 H         -9.1328529974        1.0632715025       -0.3496136467
 H         -7.5020690761        2.8512691217       -0.7406302622
 H         -5.7238454879        3.2284011082        2.3499516057
 H         -3.9408846483        1.7032295876        2.9537299429
 H         -2.0801735013        1.2141037309        1.4171957144
 H          0.5066441088        3.2434156262       -1.5322093434
 H          6.9764632086        5.0117047733        0.3816738924
 H          7.1302169829        5.9768151816        2.6311128934
