  80
 
 C         -5.6424375798        0.0209609131        3.1219992099
 C         -5.9560834346        0.0113245447        1.6146886121
 C         -7.4785853271        0.0105835406        1.3870546520
 C         -5.3734034441       -1.2504753341        1.0061332558
 C         -5.7964094705       -2.4907229866        1.4638750424
 C         -5.2992855451       -3.6729982784        0.9471177754
 C         -4.3495648525       -3.6267476399       -0.0571025068
 C         -3.9115242223       -2.4081928066       -0.5314801546
 C         -4.4147202682       -1.2127463258       -0.0111137277
 N         -3.9554034041       -0.0034354616       -0.5089520983
 C         -3.0006730182       -0.0107484716       -1.5609385642
 C         -3.4353527688       -0.0203313435       -2.8809870686
 C         -2.5205756380       -0.0277036223       -3.9269041925
 C         -1.1750520621       -0.0253218564       -3.6216103496
 C         -0.7317034475       -0.0156421686       -2.2860038542
 C         -1.6383335494       -0.0082548703       -1.2486443322
 C          0.7318828125       -0.0156412180       -2.2859151344
 C          1.6383876511       -0.0082756724       -1.2484454474
 C          3.0007647081       -0.0107536246       -1.5605760185
 N          3.9553771880       -0.0034845972       -0.5084819579
 C          4.4137071069        1.2126047819       -0.0265083132
 C          3.9097758377        2.4007286895       -0.5626924172
 C          4.3468462981        3.6257418944       -0.1043230808
 C          5.2963586883        3.6858994435        0.8993576102
 C          5.7943199695        2.5108918024        1.4316533473
 C          5.3722953405        1.2644182689        0.9902090141
 C          5.9559913700        0.0111616805        1.6152220928
 C          7.4784921369        0.0101641052        1.3875794509
 C          5.6423557802        0.0209868601        3.1225333310
 C          5.3731205747       -1.2506038910        1.0067787497
 C          5.7959146199       -2.4908742459        1.4646543514
 C          5.2986236187       -3.6731208044        0.9479919114
 C          4.3489563314       -3.6268164470       -0.0562763362
 C          3.9111279706       -2.4082379648       -0.5307892389
 C          4.4144809731       -1.2128206213       -0.0105073112
 C          3.4356026402       -0.0202890654       -2.8805728178
 C          2.5209521731       -0.0276499176       -3.9266004738
 C          1.1753920071       -0.0252976869       -3.6214683864
 C          0.0002251223       -0.0318311727       -4.5333938825
 O          0.0002984172       -0.0405077165       -5.7412992516
 C         -4.4135733664        1.2126808239       -0.0268936734
 C         -3.9094791134        2.4007765356       -0.5629869188
 C         -4.3463958956        3.6258147258       -0.1045376880
 C         -5.2959208237        3.6860260726        0.8991277073
 C         -5.7940554975        2.5110462963        1.4313221035
 C         -5.3721885931        1.2645484855        0.9897953379
 H         -6.0578450688       -0.8559627218        3.6106621952
 H         -6.0569562071        0.9045841297        3.5992151364
 H         -4.5648680901        0.0214157428        3.2756973530
 H         -7.9375322215       -0.8666668299        1.8344742814
 H         -7.9366950188        0.8939825647        1.8230888419
 H         -7.6932411304        0.0037851108        0.3199884915
 H         -6.5369844163       -2.5426587820        2.2475932589
 H         -5.6511399324       -4.6201655507        1.3263846358
 H         -3.9472939585       -4.5378910526       -0.4740939558
 H         -3.1703605539       -2.3783515644       -1.3159899128
 H         -4.4963733258       -0.0219797390       -3.0807810681
 H         -2.8478970795       -0.0351333795       -4.9551874656
 H         -1.3257843202       -0.0007606937       -0.2154309627
 H          1.3257133140       -0.0008112995       -0.2152696972
 H          3.1688465181        2.3600149572       -1.3469353592
 H          3.9440191473        4.5310245031       -0.5333675647
 H          5.6474672411        4.6382335074        1.2661733361
 H          6.5347963701        2.5736797846        2.2146700559
 H          7.9367373337        0.8935407970        1.8235172066
 H          7.6931431424        0.0032183190        0.3205131998
 H          7.9373060242       -0.8671089915        1.8350912489
 H          4.5647871969        0.0216315592        3.2762357699
 H          6.0570214490        0.9045837063        3.5996699741
 H          6.0576216914       -0.8559604663        3.6112735296
 H          6.5364599718       -2.5428517002        2.2483976655
 H          5.6503221360       -4.6203073404        1.3273554368
 H          3.9465705181       -4.5379360098       -0.4732084025
 H          3.1700149660       -2.3783563595       -1.3153450794
 H          4.4966472807       -0.0219183612       -3.0802391049
 H          2.8483974984       -0.0350630230       -4.9548443675
 H         -3.1685475292        2.3600220922       -1.3472257175
 H         -3.9434383437        4.5310750072       -0.5335075627
 H         -5.6469028531        4.6383802372        1.2660120456
 H         -6.5345407639        2.5738761934        2.2143271993
