  94
 
 C          8.1040900457       -1.5231172471       -0.3541879630
 C          8.8691542042       -0.5369072295        0.5465947955
 C          8.1075818251       -0.3167431304        1.8665412800
 C         10.2074556666       -1.1760347436        0.8947406945
 C         10.2551578652       -2.3968453000        1.5543318666
 C         11.4541809370       -2.9992755140        1.8929046299
 C         12.6517044003       -2.3821341704        1.5728093104
 C         12.6353929214       -1.1712904654        0.9147167677
 C         11.4233988510       -0.5691391081        0.5749364274
 N         11.4297503935        0.6338098209       -0.0820093390
 C         10.2959079933        1.3069419313       -0.4691051187
 C         10.4703071748        2.5122400931       -1.1490649302
 C          9.3786751526        3.2389859323       -1.5671769888
 C          8.1139542907        2.7573973466       -1.2968890061
 C          7.9243862152        1.5559616987       -0.6136137636
 C          6.4909384737        1.2267328473       -0.4130066643
 C          5.8142780046        1.6721461748        0.7197121369
 C          4.4623519039        1.4462494569        0.8737103972
 C          3.7301109061        0.7857811549       -0.1169053984
 C          2.3093185122        0.5184879299        0.0129858518
 C          1.6239047369        0.5083202441        1.2280502781
 C          0.2745754388        0.2219959688        1.2674964446
 C         -0.4306822680       -0.0488164754        0.0793976338
 N         -1.7080945610       -0.3162622137        0.0381510539
 C         -2.4064815108       -0.5491436145       -1.0864360506
 C         -3.8238739292       -0.8237202209       -0.9369974407
 C         -4.3182927646       -1.1827159648        0.3227467632
 C         -5.6573334465       -1.4437332546        0.5133201729
 C         -6.5623854551       -1.3238837851       -0.5389331041
 C         -7.9886433471       -1.6935344995       -0.3589364320
 C         -8.2427291371       -3.0328926846       -0.6553392197
 C         -9.5094933560       -3.5677094267       -0.5378932459
 C        -10.5379445162       -2.7548276546       -0.1183157635
 C        -10.2995241726       -1.4127223062        0.1775417428
 C         -9.0191079791       -0.8469144727        0.0625855094
 C         -8.8018257814        0.6322499484        0.3828717929
 C         -7.7972824675        0.7656854860        1.5421880357
 C         -8.2680964643        1.3465062518       -0.8718374625
 C        -10.0815428500        1.3422588371        0.8059567393
 C        -10.0658285019        2.6939950121        1.1227260718
 C        -11.2088222189        3.3659726498        1.5192045907
 C        -12.4127712856        2.6877703739        1.6086192820
 C        -12.4594177583        1.3459931854        1.2972917630
 C        -11.3038795626        0.6739575162        0.8971711977
 N        -11.3728021407       -0.6599537746        0.5895483091
 C         -6.0708917875       -1.0005466459       -1.8013663600
 C         -4.7289532911       -0.7482612906       -1.9993458926
 C         -1.7237053815       -0.5306194813       -2.3026865479
 C         -0.3669537961       -0.2778137288       -2.3396714106
 C          0.3439045858       -0.0190319165       -1.1518478313
 N          1.6240060114        0.2388694501       -1.1088577687
 C          4.4027711858        0.3948844894       -1.2805951639
 C          5.7553589455        0.6146792974       -1.4258101655
 C          9.0183710050        0.7964891666       -0.1863938067
 H          7.0896553808       -1.1811326786       -0.5293314353
 H          8.6128320408       -1.6208715742       -1.3117437571
 H          8.0550872164       -2.5054061139        0.1070551803
 H          8.5610265497        0.5005600539        2.4247504223
 H          8.1453320374       -1.2097921224        2.4839792066
 H          7.0660610495       -0.0802989585        1.6783625794
 H          9.3377744977       -2.9019430129        1.8176509505
 H         11.4519927432       -3.9485494864        2.4067150394
 H         13.5923550189       -2.8430367836        1.8344417934
 H         13.5594160840       -0.6737678661        0.6543402282
 H         12.3212939250        1.0476954271       -0.3087988598
 H         11.4743918208        2.8632448347       -1.3428918680
 H          9.5106987008        4.1705014245       -2.0964449937
 H          7.2430318253        3.3126806063       -1.6127806415
 H          6.3588732620        2.2103054524        1.4828606036
 H          3.9678610888        1.8127471273        1.7607026650
 H          2.1591440057        0.7012601094        2.1437348126
 H         -0.2652558778        0.2009970172        2.2003770545
 H         -3.6230071293       -1.2638513198        1.1446959647
 H         -6.0141565613       -1.7498633082        1.4866237510
 H         -7.4201517570       -3.6531062495       -0.9800162063
 H         -9.6916084457       -4.6060759050       -0.7701008924
 H        -11.5415236880       -3.1433783679       -0.0142969447
 H         -6.7974093399        0.4932426656        1.2227257882
 H         -8.0941111043        0.1196871080        2.3666553956
 H         -7.7681187969        1.7882804697        1.9077178794
 H         -7.2866765359        0.9721432834       -1.1425246824
 H         -8.9486627429        1.1870168790       -1.7065652865
 H         -8.1860944792        2.4157867399       -0.6990067460
 H         -9.1417051354        3.2494337039        1.0634237995
 H        -11.1578555808        4.4172262884        1.7587797319
 H        -13.3096052106        3.2026620806        1.9189169091
 H        -13.3897219868        0.7984371675        1.3594757120
 H        -12.2688524099       -1.1183796814        0.6570806657
 H         -6.7567028291       -0.9436909740       -2.6353992578
 H         -4.3872242000       -0.4758482626       -2.9865727312
 H         -2.2561366340       -0.7379254447       -3.2169349329
 H          0.1737298880       -0.2708553933       -3.2723406918
 H          3.8389278589       -0.0873804832       -2.0648760232
 H          6.2574814889        0.3112879086       -2.3339856530
