  61
 
 C          5.3669427878        2.5196408232        0.0732668814
 C          4.6234163102        1.2234708073        0.0351750545
 C          3.2350760118        1.2017418177        0.0346351122
 C          2.5426451047       -0.0000140496        0.0000018104
 N          1.1187484414        0.0000229655        0.0000016516
 C          0.4463868967       -0.0529847718        1.2098019795
 C          1.1694458231       -0.1065327336        2.4053416164
 C          0.5249356411       -0.1291541134        3.6246843237
 C         -0.8576647708       -0.0902262758        3.6767270863
 C         -1.5768548747       -0.0437062285        2.4967932259
 C         -0.9510462939       -0.0321948500        1.2583922445
 C         -1.8051517777        0.0000379831        0.0000006405
 C         -2.6321135008        1.2813539233       -0.0317797897
 C         -3.8702243142        1.3532778408       -0.6605982147
 C         -4.5628140591        2.5498656832       -0.7283721628
 C         -4.0270742292        3.7007606265       -0.1776148867
 C         -2.7864189657        3.6456558707        0.4335839802
 C         -2.0955791247        2.4491004419        0.5002560565
 C         -2.6320009938       -1.2813520170        0.0317972237
 C         -3.8700796503       -1.3533917581        0.6606662913
 C         -4.5625776904       -2.5500326035        0.7284250813
 C         -4.0267750526       -3.7008689972        0.1776057236
 C         -2.7861527535       -3.6456484090       -0.4336490058
 C         -2.0954059873       -2.4490386946       -0.5003097071
 C         -0.9510444410        0.0323359801       -1.2583886672
 C         -1.5768536105        0.0439134672       -2.4967882503
 C         -0.8576628603        0.0904608107       -3.6767205209
 C          0.5249386736        0.1293441930       -3.6246770986
 C          1.1694492194        0.1066602162       -2.4053356783
 C          0.4463893823        0.0530897313       -1.2097977011
 C          3.2350088406       -1.2018078162       -0.0346334796
 C          4.6233484291       -1.2236119048       -0.0351861652
 C          5.3667988769       -2.5198248325       -0.0732794982
 C          5.2871957738       -0.0000875646       -0.0000123113
 Br         7.2066811443       -0.0001010455       -0.0000018060
 H          6.0015870945        2.5686385615        0.9582715502
 H          4.6762971243        3.3579613935        0.0905707721
 H          6.0132747647        2.6144294010       -0.7994156044
 H          2.6846080223        2.1302139758        0.0600082795
 H          2.2481075875       -0.1259904176        2.3728901862
 H          1.1060906959       -0.1707585775        4.5342735783
 H         -1.3725374726       -0.0964551273        4.6254490500
 H         -2.6541856112       -0.0080071189        2.5377684925
 H         -4.3107408722        0.4692092013       -1.0976306615
 H         -5.5267781842        2.5805991488       -1.2162389375
 H         -4.5695282563        4.6335742764       -0.2287026896
 H         -2.3519275739        4.5386374807        0.8598840900
 H         -1.1265230350        2.4231541951        0.9781307367
 H         -4.3106532692       -0.4693687136        1.0977337851
 H         -5.5265157496       -2.5808562589        1.2163377625
 H         -4.5691496644       -4.6337287259        0.2287003600
 H         -2.3516065689       -4.5385845106       -0.8599871234
 H         -1.1263760735       -2.4230047641       -0.9782316662
 H         -2.6541856069        0.0082498381       -2.5377636811
 H         -1.3725362769        0.0967430980       -4.6254417044
 H          1.1060942719        0.1709645952       -4.5342651634
 H          2.2481115561        0.1260850225       -2.3728843515
 H          2.6844903219       -2.1302498535       -0.0600064888
 H          4.6761055408       -3.3581063775       -0.0905711062
 H          6.0131373069       -2.6146444227        0.7993951939
 H          6.0014295216       -2.5688608356       -0.9582916991
