  137
 
 C         11.6834577338       -5.4429892659        1.6965643440
 C         12.1256602003       -4.6740647555        0.4422031260
 C         13.6211692689       -4.3695961833        0.5742572319
 C         11.9265324698       -5.5518000134       -0.8026217239
 C         11.2811599458       -3.4147743348        0.3087978894
 C          9.8912980717       -3.5410068181        0.1771234847
 C          9.0455496673       -2.4557162487        0.0656781041
 C          9.6038527653       -1.1859286090        0.0992413956
 C         11.0041750387       -1.0327031620        0.1950985867
 C         11.8315786265       -2.1414324338        0.3033892199
 C         11.2635920236        0.3812173136        0.1397285648
 C         12.4295036617        1.1310601341        0.2012657732
 C         12.3624202271        2.5156867087        0.1491228319
 C         13.6002093381        3.4002546648        0.1973929401
 C         14.8990329537        2.5923116551        0.2821185377
 C         13.5232327368        4.3099620093        1.4329449260
 C         13.6553462951        4.2572468852       -1.0764911777
 C         11.1003263299        3.1193532223        0.0615404460
 C          9.9250596706        2.3980015391       -0.0004077007
 C         10.0072249765        1.0130262612        0.0136099400
 N          9.0086621386        0.0570762839       -0.0119963405
 C          7.6418431646        0.3046842707       -0.1289097361
 C          6.7232243411       -0.3500591284        0.7005705976
 C          5.3787679027       -0.1063749849        0.5828475701
 C          4.8704028831        0.8175765308       -0.3563682326
 C          3.4625973950        1.0818725609       -0.4622318129
 C          2.9830220144        2.3356423308       -0.9273587119
 C          1.6516843646        2.6241408735       -1.0073055423
 C          0.7055664973        1.6395200662       -0.6456459372
 C          1.1737394248        0.3636062413       -0.1990938542
 C          2.5019547913        0.0987377528       -0.0963446303
 C         -0.0014490754       -0.5427961052        0.1020487091
 C         -0.0043267677       -0.9791532643        1.5715479165
 C         -0.0011640838       -1.7693635873       -0.8178924773
 C         -1.1730089656        0.3683015535       -0.2003930571
 C         -2.5007792115        0.1041793360       -0.1072728813
 C         -3.4656501912        1.0974278586       -0.4482152444
 C         -4.8705329956        0.8358860374       -0.3523899435
 C         -5.3813979379       -0.2112243318        0.4525398035
 C         -6.7245818836       -0.4641646334        0.5479542526
 C         -7.6507735620        0.3195328728       -0.1521260164
 N         -9.0180117912        0.0683561397       -0.0482576604
 C         -9.6271504928       -1.1666245112       -0.1600878312
 C         -9.0863807915       -2.4065525793       -0.4681230205
 C         -9.9432822009       -3.4854548175       -0.5511965301
 C        -11.3260851372       -3.3782574012       -0.3464353983
 C        -12.1848049549       -4.6306457372       -0.4517571452
 C        -12.0595190806       -5.2089648702       -1.8694574003
 C        -11.6977585875       -5.6635562954        0.5758223673
 C        -13.6668894667       -4.3541443671       -0.1799486329
 C        -11.8586858841       -2.1273816911       -0.0691796120
 C        -11.0206244342       -1.0249540639        0.0184443371
 C        -11.2593215528        0.3739409768        0.2568465262
 C        -12.4073614789        1.1066044500        0.5223615097
 C        -12.3172700145        2.4731350416        0.7450958299
 C        -13.5345711715        3.3388289348        1.0380339962
 C        -13.6426078150        4.4362399307       -0.0315431118
 C        -13.3749884434        3.9795722283        2.4252192679
 C        -14.8416599908        2.5398697316        1.0311555520
 C        -11.0507106562        3.0732697161        0.7124698726
 C         -9.8927253396        2.3692449638        0.4506074644
 C         -9.9991316237        1.0085922909        0.2017792853
 C         -7.1720957740        1.3622853182       -0.9555733415
 C         -5.8276609066        1.6083819079       -1.0541449567
 C         -2.9737676686        2.3630572500       -0.8796403605
 C         -1.6425237024        2.6417946599       -0.9712525036
 C         -0.6979051276        1.6451540312       -0.6381236366
 C          5.8144453727        1.4689093954       -1.1801560153
 C          7.1584467328        1.2154421775       -1.0764972548
 H         12.2875214789       -6.3398407299        1.8183543318
 H         10.6407472331       -5.7416337771        1.6324889771
 H         11.8060268959       -4.8211880649        2.5814468042
 H         13.9949281878       -3.8526220549       -0.3067408209
 H         14.1725770142       -5.3024961223        0.6744912760
 H         13.8214794987       -3.7653665953        1.4562649948
 H         12.2101999216       -5.0031845478       -1.6988312170
 H         12.5449717265       -6.4444572815       -0.7336467891
 H         10.8911615761       -5.8637066962       -0.9083566970
 H          9.4491025872       -4.5253822250        0.1563365315
 H          7.9830455594       -2.6008469731       -0.0571745548
 H         12.8949013604       -1.9867843803        0.3777327154
 H         13.3707065079        0.6156559450        0.2935208909
 H         15.7477710948        3.2732257231        0.3032295195
 H         15.0123694711        1.9415260793       -0.5820656622
 H         14.9286995088        1.9921984548        1.1887872810
 H         14.4123890312        4.9342925634        1.4936769995
 H         12.6536357736        4.9602760812        1.3946715122
 H         13.4600747164        3.7098463641        2.3387830953
 H         14.5460128786        4.8823039017       -1.0686392085
 H         12.7868796639        4.9050642022       -1.1580511176
 H         13.6889158373        3.6196156372       -1.9579821312
 H         11.0292623550        4.1962188657        0.0455687644
 H          8.9732415919        2.9052267915       -0.0438749485
 H          7.0872008435       -1.0231484838        1.4629610329
 H          4.6999237911       -0.5949016360        1.2650692967
 H          3.7009378787        3.1017713436       -1.1817904450
 H          1.3165593899        3.5963999129       -1.3392501639
 H          2.8407132634       -0.8762291934        0.2213307415
 H          0.8772241987       -1.5776788737        1.7898417400
 H         -0.0025050891       -0.1068720947        2.2226766029
 H         -0.8900667593       -1.5721108499        1.7881019731
 H          0.8826309743       -2.3770911002       -0.6373133434
 H         -0.0005232231       -1.4564648918       -1.8604579407
 H         -0.8853462688       -2.3768195130       -0.6384347294
 H         -2.8336570830       -0.8775272295        0.1933130328
 H         -4.7043456268       -0.8026102685        1.0487266387
 H         -7.0842773741       -1.2483641240        1.1984525773
 H         -8.0295374260       -2.5282398504       -0.6517375361
 H         -9.5168651858       -4.4477382515       -0.7902119067
 H        -12.6804690978       -6.0971640303       -1.9672581416
 H        -12.3864382026       -4.4762637265       -2.6049250555
 H        -11.0334121975       -5.4844137992       -2.0971082929
 H        -10.6664311125       -5.9517804037        0.3923848196
 H        -11.7632966110       -5.2529939625        1.5817194033
 H        -12.3141901794       -6.5589095063        0.5275155368
 H        -14.0758749130       -3.6573869930       -0.9082131373
 H        -14.2278643896       -5.2837641409       -0.2547406707
 H        -13.8129882564       -3.9534048236        0.8206697550
 H        -12.9165207863       -1.9851589488        0.0750635433
 H        -13.3526050222        0.5913779778        0.5563837339
 H        -14.5174091707        5.0556240612        0.1558245858
 H        -12.7661630009        5.0783988285       -0.0329679653
 H        -13.7403181605        3.9905843623       -1.0197032577
 H        -13.2653570717        3.2084120702        3.1854945341
 H        -14.2519130797        4.5779363901        2.6639560203
 H        -12.5019471342        4.6250477237        2.4671401246
 H        -14.8342780494        1.7696377593        1.7990889843
 H        -15.0126293282        2.0776350525        0.0614658819
 H        -15.6751559344        3.2090387382        1.2359626876
 H        -10.9621590556        4.1316701573        0.9043418765
 H         -8.9343390383        2.8662685446        0.4552045125
 H         -7.8746107599        1.9487828559       -1.5300274696
 H         -5.4958973104        2.3874871595       -1.7225634685
 H         -3.6819517227        3.1458221929       -1.1067357027
 H         -1.3047557850        3.6186958235       -1.2868811694
 H          5.4700477133        2.1462078522       -1.9468174162
 H          7.8537235646        1.6923333403       -1.7519510115
