  85
 
 C          9.7902238828       -1.4489031804       -0.6815410794
 C          8.8842477437       -0.8778781583       -1.7718254761
 N          7.7566617059       -0.1824255490       -1.2137336547
 C          7.6930784565        1.1494560886       -0.8815855629
 C          8.6404410866        2.1476423881       -1.0735908685
 C          8.3462301807        3.4214811307       -0.6358282250
 C          7.1345654166        3.7118954159       -0.0062376582
 C          6.1808209704        2.7388050635        0.1905981613
 C          6.4420763962        1.4429756394       -0.2543570504
 C          5.7552667962        0.2030941896       -0.2298858227
 C          6.5897112286       -0.7611430162       -0.7864341624
 C          5.9399085276       -2.0199206561       -0.6935589991
 C          6.2506246676       -3.3236721553       -1.0713924830
 C          5.3277985654       -4.3205422941       -0.8387017659
 C          4.0938668526       -4.0358297004       -0.2559588769
 C          3.7605866061       -2.7538172086        0.1347466935
 C          4.6930265697       -1.7444124731       -0.0567099880
 N          4.5928129735       -0.3929498337        0.2265813071
 C          3.5158180670        0.2672910190        0.8089082154
 C          3.0742690638        1.4743798105        0.2623527665
 C          2.0243804215        2.1539827909        0.8472649378
 C          1.4133073369        1.6288120595        1.9705444096
 S          0.0313287900        2.4948061863        2.7168196285
 O          0.0593790058        2.2693026474        4.1381986923
 O          0.0280146162        3.8505499590        2.2336522254
 C         -1.3888018621        1.6378263384        2.0343073366
 C         -2.0045267117        0.6429805539        2.7700304246
 C         -3.0923966890       -0.0250518601        2.2421916879
 C         -3.5552362977        0.3003732363        0.9658627096
 N         -4.6627002370       -0.3441369453        0.4244260365
 C         -4.9220292735       -1.7040373307        0.4218375838
 C         -4.1472291712       -2.7470221559        0.9085794692
 C         -4.6198794990       -4.0365710603        0.7641740323
 C         -5.8374866415       -4.2986040954        0.1379957427
 C         -6.6016897533       -3.2778880611       -0.3850956659
 C         -6.1476120413       -1.9674477585       -0.2598191057
 C         -6.6167215918       -0.6934895663       -0.6749912568
 C         -5.7016491471        0.2669222819       -0.2553521437
 C         -6.2144862271        1.5417508459       -0.6037915001
 C         -5.8142740772        2.8647882867       -0.4172136209
 C         -6.6146246657        3.8740160055       -0.9032109362
 C         -7.8085908490        3.5938298110       -1.5701177677
 C         -8.2390729421        2.2974766526       -1.7572437421
 C         -7.4479314700        1.2635842110       -1.2715398847
 N         -7.6649176393       -0.0923672865       -1.3225445028
 C         -8.8364749603       -0.7587694828       -1.8225058599
 C         -9.8769719268       -0.9692285458       -0.7230827331
 C         -2.9168516028        1.3024155412        0.2308546434
 C         -1.8358093513        1.9713478276        0.7689276467
 C          1.8344162081        0.4317331153        2.5191130425
 C          2.8895281663       -0.2499426056        1.9449226324
 H         10.6306063565       -1.9740776684       -1.1275741136
 H          9.2326247543       -2.1434309746       -0.0573551750
 H         10.1702958344       -0.6477455896       -0.0519308602
 H          9.4455844672       -0.1826876670       -2.4013851113
 H          8.5069010291       -1.6848715625       -2.4063900257
 H          9.5889240043        1.9358345376       -1.5442347140
 H          9.0710364902        4.2100950906       -0.7734071039
 H          6.9475386959        4.7189763562        0.3351358557
 H          5.2536983854        2.9700772725        0.6932088336
 H          7.1961952770       -3.5496595760       -1.5413211719
 H          5.5552900422       -5.3373023414       -1.1223114971
 H          3.3824322581       -4.8346716912       -0.1090632208
 H          2.7924648274       -2.5452702518        0.5640432670
 H          3.5576037753        1.8613271176       -0.6214843359
 H          1.6741708366        3.0966262621        0.4571201062
 H         -1.6405311105        0.4311689153        3.7630634653
 H         -3.6081026592       -0.7745817797        2.8221171083
 H         -3.1922676480       -2.5615659331        1.3761916398
 H         -4.0328682058       -4.8600468131        1.1425497886
 H         -6.1777516476       -5.3198267930        0.0524984552
 H         -7.5341924365       -3.4914612319       -0.8859329240
 H         -4.9011484273        3.0926710474        0.1118579767
 H         -6.3190781584        4.9030959881       -0.7639541022
 H         -8.4111704234        4.4109989179       -1.9379839102
 H         -9.1731522784        2.0981167771       -2.2609712620
 H         -9.2602885227       -0.1583898482       -2.6315806785
 H         -8.5292491983       -1.7229980301       -2.2374534519
 H         -9.4562262083       -1.5694616689        0.0804084509
 H        -10.7492062100       -1.4793058682       -1.1230973394
 H        -10.1874333204       -0.0113950151       -0.3121032411
 H         -3.2748083145        1.5389679993       -0.7593156710
 H         -1.3380868428        2.7607372295        0.2282513241
 H          1.3504111480        0.0665478013        3.4110885175
 H          3.2553567564       -1.1639551249        2.3862764880
