60

C      1.756101    1.638454   -2.497749
C      0.601451    1.636561   -1.714425
C      0.610853    1.110642   -0.413115
C     -0.610838    1.110661    0.413056
C     -0.601435    1.636627    1.714347
C     -1.756088    1.638559    2.497666
C     -2.948207    1.122545    1.989995
C     -2.994901    0.604597    0.690311
N     -4.217497    0.070642    0.166574
C     -5.510861    0.541914    0.439898
C     -5.971266    1.686748    1.125911
C     -7.347965    1.896172    1.251739
C     -8.256750    1.008144    0.693898
C     -7.805403   -0.098942   -0.027245
C     -6.419304   -0.328290   -0.174913
C     -5.670174   -1.302989   -0.887623
C     -6.003944   -2.405488   -1.697372
C     -4.968322   -3.154524   -2.247992
C     -3.664031   -2.782880   -1.974215
N     -3.291436   -1.738203   -1.208366
C     -4.321081   -1.021390   -0.695200
C     -1.821683    0.589675   -0.081541
C      1.821694    0.589664    0.081498
C      2.994910    0.604547   -0.690360
N      4.217502    0.070602   -0.166606
C      5.510864    0.541876   -0.439916
C      5.971267    1.686688   -1.125965
C      7.347967    1.896146   -1.251735
C      8.256754    1.008175   -0.693802
C      7.805407   -0.098899    0.027363
C      6.419303   -0.328285    0.174968
C      5.670164   -1.302987    0.887664
C      6.003929   -2.405466    1.697444
C      4.968298   -3.154504    2.248041
C      3.664011   -2.782885    1.974221
N      3.291425   -1.738228    1.208338
C      4.321075   -1.021413    0.695192
C      2.948217    1.122448   -1.990064
H      1.721312    2.031657   -3.510550
H     -0.315121    2.051941   -2.128864
H      0.315137    2.052017    2.128779
H     -1.721291    2.031793    3.510454
H     -3.810805    1.085876    2.649494
H     -5.284561    2.418972    1.539613
H     -7.708830    2.772029    1.786508
H     -9.324120    1.185250    0.798888
H     -8.523177   -0.771593   -0.488698
H     -7.039857   -2.666777   -1.886829
H     -5.176426   -4.013213   -2.876472
H     -2.835630   -3.353744   -2.387972
H     -1.834101    0.186150   -1.092151
H      1.834112    0.186177    1.092124
H      5.284560    2.418875   -1.539735
H      7.708835    2.771987   -1.786525
H      9.324125    1.185321   -0.798745
H      8.523178   -0.771513    0.488882
H      7.039839   -2.666737    1.886938
H      5.176395   -4.013179    2.876541
H      2.835607   -3.353748    2.387964
H      3.810810    1.085745   -2.649564
