  52
 
 C          5.8827325794       -2.9440886034       -0.0891502407
 C          4.8382945828       -3.0419462295        0.8171796868
 C          3.8539874347       -2.0736104001        0.8558874789
 C          3.9052107261       -0.9943431047       -0.0249514946
 N          2.9071413933       -0.0122261266        0.0060497567
 C          3.1061818581        1.3435061937        0.0442720972
 C          4.2909140374        2.0663906619        0.1101990192
 C          4.2044614827        3.4442133302        0.1692814020
 C          2.9685748578        4.1039653938        0.1678133199
 C          1.7866289015        3.4025457997        0.1279860738
 C          1.8419577282        2.0059005686        0.0739133115
 C          0.8526408988        0.9936333809        0.0513792198
 C         -0.5577998290        1.0036543546        0.0445000777
 C         -1.2762639472       -0.2015368242       -0.0054093303
 C         -0.5499156028       -1.4020714987       -0.0608339338
 C          0.8582513434       -1.4521948332       -0.0669243465
 C          1.5393889092       -0.2538763881        0.0122140019
 O         -1.1718781620       -2.5978177964       -0.1232266992
 C         -2.5301758989       -2.7194535744       -0.0530608692
 C         -2.9779412914       -4.0379008743       -0.0601820319
 C         -4.3304360914       -4.3134647387        0.0425383949
 C         -5.2261057498       -3.2568826927        0.1677268797
 C         -4.7776379347       -1.9513438867        0.1665466812
 C         -3.4195955996       -1.6135236041        0.0320305647
 B         -2.8053047644       -0.2019305464       -0.0120891475
 C         -3.4216420093        1.2109579105       -0.0663720682
 C         -4.7786264278        1.5457062362       -0.2068538409
 C         -5.2284656146        2.8521819213       -0.2260339483
 C         -4.3346794918        3.9092893313       -0.1138370883
 C         -2.9817461026        3.6348388781       -0.0043940832
 C         -2.5348697094        2.3165296445        0.0074760588
 O         -1.1744830267        2.1958999762        0.0833948609
 C          4.9533346174       -0.8997446900       -0.9392038982
 C          5.9362338131       -1.8699135085       -0.9638794082
 H          6.6509500213       -3.7015993180       -0.1141710440
 H          4.7951547458       -3.8743123082        1.5037027283
 H          3.0535139365       -2.1333087563        1.5777809820
 H          5.2483944936        1.5691873891        0.1302404468
 H          5.1112626261        4.0278248198        0.2219478183
 H          2.9528793908        5.1827092927        0.2099800104
 H          0.8307545141        3.9005333412        0.1433450626
 H          1.3560333015       -2.4050385714       -0.1485849892
 H         -2.2487234997       -4.8299964436       -0.1384043997
 H         -4.6790994482       -5.3344916952        0.0364528643
 H         -6.2830767257       -3.4610665003        0.2645976753
 H         -5.4976029121       -1.1577606004        0.2821966617
 H         -5.4986455386        0.7508642958       -0.3132596720
 H         -6.2856011627        3.0535033680       -0.3269749219
 H         -4.6828119206        4.9305193837       -0.1216736069
 H         -2.2541385813        4.4293279796        0.0649487813
 H          4.9771640074       -0.0764876821       -1.6372771827
 H          6.7442247434       -1.7929450510       -1.6761423480
