  72
 
 C         -2.9575405744        4.7427390386        1.6445491395
 C         -2.3017356990        3.4404110785        1.3183857095
 C         -0.9300357264        3.2680094438        1.5102658994
 C         -0.3191842296        2.0703852999        1.2214117766
 C         -1.0605367303        0.9908807958        0.7200513936
 C         -2.4424130603        1.1456963341        0.5437872481
 C         -3.0340577432        2.3638797040        0.8403975112
 C         -3.3060878482        0.0181146615        0.0457076368
 C         -4.4637508443       -0.2274798661        1.0013159472
 C         -4.4080361829       -0.6365025761        2.3150991919
 C         -5.6011792359       -0.7962242696        3.0088195493
 C         -6.8189231986       -0.5486584003        2.3932753370
 C         -6.8776780689       -0.1363567998        1.0710507508
 C         -5.6915262671        0.0238649169        0.3733405698
 C         -5.4354688638        0.4341614098       -0.9996668944
 C         -6.3004528454        0.7874222244       -2.0226844645
 C         -5.7659149768        1.1357177413       -3.2534171704
 C         -4.3949876451        1.1299714048       -3.4616547203
 C         -3.5224331548        0.7772894605       -2.4396864672
 C         -4.0505923822        0.4339568125       -1.2152823017
 C         -2.5310367308       -1.2482088805       -0.1991067418
 C         -3.2119662819       -2.3752851312       -0.6327359198
 C         -2.5599236691       -3.5674420426       -0.9104652123
 C         -3.3075825192       -4.7712898216       -1.3840197174
 C         -1.1731197449       -3.6071764479       -0.7584012054
 C         -0.4750427852       -2.5034849348       -0.3277225145
 C         -1.1413432327       -1.3079397763       -0.0227492512
 N         -0.4373657417       -0.2067609991        0.4259952068
 C          0.9727184912       -0.3020432855        0.5808637727
 C          1.5064295091       -0.9479621892        1.6773682209
 C          2.8897922322       -1.0883694789        1.8850588620
 C          3.7458915299       -0.5602897356        0.9477987333
 C          3.1917395787        0.1042321222       -0.1752698597
 C          4.2006036747        0.5875493153       -1.0433739935
 C          3.8240291272        1.2555889521       -2.1826668619
 C          2.4475943055        1.4262305188       -2.4316328061
 C          1.4706591187        0.9559154726       -1.5883105072
 C          1.8280315737        0.2645734042       -0.4064029059
 C          5.4631246038        0.2067161213       -0.4359347384
 N          6.6929033484        0.4290898825       -0.8742166704
 C          7.6628434195       -0.0448111760       -0.1018396793
 N          8.9580344079        0.0054588656       -0.2453921894
 O          9.4915845656       -0.6408760796        0.8411970343
 N          8.5161955627       -1.1080280893        1.6873218432
 C          7.3750164791       -0.7678921123        1.1535865637
 N          6.1339572615       -0.9785854612        1.5704160038
 C          5.1830343608       -0.4946221191        0.7811714215
 H         -3.9680719353        4.7819029427        1.2468260884
 H         -2.3820783707        5.5729434596        1.2391455993
 H         -3.0074655420        4.8733548605        2.7259954303
 H         -0.3377933670        4.0851665921        1.8940931833
 H          0.7414817383        1.9592827015        1.3842915152
 H         -4.0990820606        2.4685926380        0.6940442993
 H         -3.4612038217       -0.8292133318        2.7980983888
 H         -5.5790942979       -1.1161905301        4.0402115803
 H         -7.7340129055       -0.6790525233        2.9525731253
 H         -7.8284360168        0.0550964409        0.5964476274
 H         -7.3688032152        0.7912204075       -1.8662251227
 H         -6.4256434047        1.4140710251       -4.0624294360
 H         -4.0000682997        1.4030110533       -4.4291615758
 H         -2.4555154876        0.7706900755       -2.6073086444
 H         -4.2830255909       -2.3130797813       -0.7582007082
 H         -3.1008897133       -4.9461988064       -2.4403181304
 H         -4.3790621947       -4.6393188673       -1.2603838335
 H         -2.9921239664       -5.6575606922       -0.8362853077
 H         -0.6373543654       -4.5171577789       -0.9837818631
 H          0.5974943859       -2.5572921713       -0.2262421240
 H          0.8297613331       -1.3658339588        2.4088952930
 H          3.2575411923       -1.5991774474        2.7609378509
 H          4.5564717531        1.6431677188       -2.8738271721
 H          2.1568216837        1.9522917572       -3.3288104695
 H          0.4296864282        1.1171963761       -1.8224663612
