  49
 
 N          8.3853416354       -1.1132798526        0.0152523492
 C          7.4332094957       -0.4743756357        0.0166447780
 C          6.2667258080        0.3204449600        0.0183656792
 C          6.3617138646        1.7119145948        0.0299233954
 C          5.2174057348        2.4934973768        0.0316735642
 C          3.9605192322        1.9126120998        0.0219429995
 C          3.8371871806        0.5286587140        0.0104702026
 C          4.9977673765       -0.2654604858        0.0088333363
 S          4.6576465469       -1.9748100169       -0.0050103574
 C          2.9365477830       -1.6534674953       -0.0079940040
 C          1.9270763904       -2.6110381879       -0.0166469055
 C          0.6198948779       -2.1942118423       -0.0165732265
 C          0.2888397163       -0.8194348097       -0.0087843169
 C         -1.0714542327       -0.4069219352       -0.0081526453
 N         -2.0705649281       -1.3258690298       -0.0064435350
 C         -3.3144431843       -0.9388260910       -0.0027920024
 C         -4.3829997703       -1.9231105012        0.0024032180
 C         -5.7168590036       -1.5105144318        0.0093021948
 C         -6.7309829101       -2.4466428646        0.0155963668
 C         -6.4300668188       -3.8002882813        0.0149287297
 C         -5.1063333793       -4.2165804681        0.0078598176
 C         -4.0864238290       -3.2878369132        0.0016821005
 N         -3.6442223312        0.3713360653       -0.0027027721
 C         -2.6388986722        1.2794920527       -0.0066194110
 C         -2.9806930853        2.6900125827       -0.0091323515
 C         -4.3192966288        3.0888433979       -0.0034328931
 C         -4.6422086402        4.4305039646       -0.0063946851
 C         -3.6403481753        5.3892949300       -0.0151546779
 C         -2.3083255673        4.9997640095       -0.0209065568
 C         -1.9763896283        3.6612285505       -0.0179076452
 N         -1.3891345701        0.9103374446       -0.0083097029
 C          1.3206482273        0.1351694780       -0.0007689582
 C          2.6386712848       -0.2761766694        0.0004097783
 H          7.3394226740        2.1697226330        0.0376153580
 H          5.3110171189        3.5687118209        0.0408756956
 H          3.0741285977        2.5279085410        0.0234797098
 H          2.1769811813       -3.6607102619       -0.0229656390
 H         -0.1846576704       -2.9123155589       -0.0227858950
 H         -5.9354408258       -0.4536040314        0.0098501829
 H         -7.7615709666       -2.1234358946        0.0211575819
 H         -7.2256012608       -4.5304712544        0.0199693854
 H         -4.8736367845       -5.2712549910        0.0073166694
 H         -3.0523483559       -3.5963345802       -0.0036195133
 H         -5.0884376752        2.3317890168        0.0032948536
 H         -5.6787143683        4.7342591343       -0.0019477622
 H         -3.8961800127        6.4383648834       -0.0175906838
 H         -1.5291446218        5.7478139880       -0.0278820801
 H         -0.9453398702        3.3429188817       -0.0226188117
 H          1.0646056420        1.1825295768        0.0053960534
