  90
 
 N         -2.0886237412       -7.9589385708       -0.1610615759
 C         -1.1595202086       -7.2758568300       -0.0905277468
 C         -0.0021605847       -6.5086383734       -0.0059434852
 C          1.1550285644       -7.2761735949        0.0782046095
 N          2.0839769940       -7.9594872730        0.1484549431
 C         -0.0019942335       -5.0792897742       -0.0052179925
 C         -1.1523187932       -4.2352781048       -0.0103524804
 C         -2.5234220610       -4.5119454021       -0.0186793024
 C         -3.4194700783       -3.4693521282       -0.0295924272
 C         -3.0038468061       -2.1231949409       -0.0133751463
 C         -3.9832357821       -1.0472450597       -0.0111108658
 C         -5.2025418354       -1.1715998802       -0.6895417987
 C         -6.1276146725       -0.1543903872       -0.6918636421
 C         -5.8774434241        1.0361500225       -0.0014362827
 N         -6.8147862905        2.0655943379        0.0043241543
 C         -8.1836630520        1.7711167820       -0.0148575506
 C         -8.6834443668        0.6862046263        0.7059385860
 C        -10.0346635372        0.4015274973        0.6821645408
 C        -10.9054695440        1.1919071807       -0.0507619912
 C        -10.4138687503        2.2728231750       -0.7650231605
 C         -9.0637140085        2.5631544135       -0.7527178553
 C         -6.3966613798        3.4006790166        0.0311736356
 C         -5.2673617977        3.8030094007       -0.6828693250
 C         -4.8599303718        5.1221770481       -0.6507842856
 C         -5.5701334057        6.0585653120        0.0833330175
 C         -6.6950669966        5.6646381154        0.7901397343
 C         -7.1078646639        4.3469491197        0.7698995832
 C         -4.6654352805        1.1691752541        0.6839703173
 C         -3.7408427369        0.1516144540        0.6719327145
 C         -1.6320806073       -1.8383948621        0.0050016948
 C         -0.7225627819       -2.8696898317       -0.0019949105
 C          0.7192048522       -2.8698780234       -0.0043972331
 C          1.6290030230       -1.8388211453       -0.0093483811
 C          3.0007255772       -2.1240088878        0.0078759721
 C          3.9806458667       -1.0485826803        0.0081345346
 C          5.2009009046       -1.1764370568        0.6842843026
 C          6.1269776014       -0.1602049903        0.6886771345
 C          5.8768510769        1.0330997049        0.0030143956
 N          6.8158205129        2.0610943731       -0.0008435923
 C          6.4004622553        3.3970495557       -0.0208644512
 C          5.2724089689        3.7982997370        0.6957904543
 C          4.8679023576        5.1185138131        0.6706025398
 C          5.5798308399        6.0570752821       -0.0590539803
 C          6.7035141039        5.6642234478       -0.7684444153
 C          7.1133441606        4.3455318339       -0.7551785515
 C          8.1841300857        1.7633913544        0.0135622848
 C          9.0677943013        2.5489142371        0.7540145538
 C         10.4172153722        2.2549774946        0.7616979195
 C         10.9044350573        1.1769440596        0.0401149759
 C         10.0300048054        0.3930662450       -0.6954756470
 C          8.6794847021        0.6813614536       -0.7145717202
 C          4.6637287096        1.1699362726       -0.6796340865
 C          3.7382516952        0.1531227940       -0.6699468116
 C          3.4158933040       -3.4704032088        0.0206167060
 C          2.5195765292       -4.5127006187        0.0080723780
 C          1.1485315245       -4.2356360871        0.0011604624
 H         -2.8810300880       -5.5293100384       -0.0141474177
 H         -4.4767745681       -3.6881621859       -0.0119998716
 H         -5.4061673419       -2.0674518555       -1.2559036388
 H         -7.0492175897       -0.2619846814       -1.2449690819
 H         -8.0070838972        0.0783517255        1.2885718303
 H        -10.4110613664       -0.4383885060        1.2465614557
 H        -11.9607973175        0.9670817212       -0.0650275556
 H        -11.0853598491        2.8900030412       -1.3430022677
 H         -8.6792794858        3.3984636840       -1.3194484398
 H         -4.7220592846        3.0768245301       -1.2674935818
 H         -3.9866148498        5.4226949293       -1.2102726286
 H         -5.2496255214        7.0888336125        0.1037955393
 H         -7.2510898316        6.3872656802        1.3685099350
 H         -7.9775755578        4.0385286685        1.3311575816
 H         -4.4692162245        2.0729129408        1.2424527139
 H         -2.8278813369        0.2660544441        1.2365214617
 H         -1.2914013703       -0.8131355548       -0.0114052975
 H          1.2885334375       -0.8135387098        0.0095030047
 H          5.4046003492       -2.0744289079        1.2471999364
 H          7.0494643700       -0.2707409062        1.2397255206
 H          4.7258256049        3.0704395240        1.2771210374
 H          3.9955218324        5.4181145141        1.2320409617
 H          5.2616235527        7.0881497361       -0.0740870904
 H          7.2608884059        6.3885431639       -1.3433896339
 H          7.9820559962        4.0380840208       -1.3185101364
 H          8.6867348301        3.3819160411        1.3263933103
 H         11.0915850386        2.8670214969        1.3417805830
 H         11.9592035518        0.9493108610        0.0507588790
 H         10.4029821450       -0.4445236160       -1.2655695474
 H          8.0001972356        0.0785873942       -1.2990781836
 H          4.4673940479        2.0759942328       -1.2343102616
 H          2.8245136893        0.2705812311       -1.2326516142
 H          4.4730914782       -3.6895754090        0.0016631507
 H          2.8769072762       -5.5301472243        0.0010656663
