  83
 
 C         12.0898792317       -0.3917198399       -0.1536265324
 C         11.7461408787        0.6906351312        0.6418660580
 C         10.4305878409        1.0988094100        0.7271080959
 C          9.4349230752        0.4219971967        0.0190098305
 C          8.0740705648        0.9039587180        0.1341285852
 N          7.7608655855        2.1633244303        0.3411692284
 N          6.4491596212        2.2840029175        0.3604828944
 C          5.9037515186        1.0911939685        0.1770657879
 C          4.4959157803        0.8580925027        0.2055359117
 C          3.9031300711       -0.3899842296        0.4846289927
 C          2.5456285102       -0.5359577643        0.4905887988
 C          1.6656920180        0.5505965375        0.2351289129
 C          0.2540477547        0.3880504444        0.2242346889
 C         -0.3656837332       -0.8927914320        0.0966308730
 C         -1.7120589803       -1.0383738504        0.0554989841
 C         -2.5961692754        0.0836493787        0.1380282733
 C         -3.9725855433       -0.1737496678        0.0678681464
 N         -4.4630167198       -1.4235181757        0.1160307809
 C         -5.7873941473       -1.3200497245        0.0813380613
 C         -6.7463024198       -2.3727374151        0.1472477670
 C         -6.3388911339       -3.7023161712        0.2824256891
 C         -7.2710204549       -4.7097996647        0.3692205721
 C         -8.6241108354       -4.3891204153        0.3253003529
 C         -9.0358852198       -3.0808482370        0.1887043673
 C         -8.1160805906       -2.0277749599        0.0894399246
 C         -8.5174897671       -0.6407600894       -0.0792297490
 C         -9.8624374019       -0.2779140799       -0.1981423687
 C        -10.2574829349        1.0283159200       -0.3861441565
 C         -9.3034900091        2.0397773267       -0.4769956433
 C         -7.9730685664        1.7317460173       -0.3604623496
 C         -7.5446353953        0.4061639747       -0.1479201208
 C         -6.1879595810        0.0371944937       -0.0207709107
 N         -5.0214276969        0.7568519765       -0.0232829923
 C         -4.8878952292        2.1539158594       -0.1514573235
 C         -5.1902681287        2.9839467956        0.9248195502
 C         -5.0510338094        4.3531457205        0.7921416388
 C         -4.6128554925        4.8966840854       -0.4051825176
 C         -4.3135094979        4.0691010145       -1.4752836377
 C         -4.4498678992        2.6982496333       -1.3546502410
 C         -1.9865878248        1.3595912083        0.3161410395
 C         -0.6360891965        1.4969759642        0.3497755582
 C          2.2821350205        1.8117744548        0.0028446984
 C          3.6369185374        1.9586857229       -0.0092796698
 N          6.9180105766        0.1623091808        0.0253314537
 C          6.8139674948       -1.2165995973       -0.2209750500
 C          7.4078801703       -2.1213049409        0.6532023796
 C          7.3176724415       -3.4767751520        0.3965793560
 C          6.6383577969       -3.9321747572       -0.7216841525
 C          6.0466847699       -3.0283483807       -1.5897661342
 C          6.1334973429       -1.6705297833       -1.3470690961
 C          9.7906304669       -0.6502449027       -0.7990647602
 C         11.1108643203       -1.0516527846       -0.8777865431
 H         13.1186805649       -0.7138813884       -0.2167293149
 H         12.5086678172        1.2163874350        1.1972731163
 H         10.1459914520        1.9419045169        1.3369213140
 H          4.5239034193       -1.2386266971        0.7305553700
 H          2.1352921086       -1.5008640225        0.7442873799
 H          0.2545917261       -1.7687295693       -0.0116664859
 H         -2.1646705303       -2.0098512099       -0.0624867482
 H         -5.2797005951       -3.9034006546        0.3201116602
 H         -6.9604956988       -5.7384627954        0.4742740511
 H         -9.3635250095       -5.1734898951        0.3989605032
 H        -10.0958075935       -2.8843068269        0.1623787516
 H        -10.6283269977       -1.0350434827       -0.1499807301
 H        -11.3070247086        1.2665240822       -0.4727395887
 H         -9.6101746187        3.0619293319       -0.6416271824
 H         -7.2396770529        2.5167171555       -0.4457011298
 H         -5.5312142806        2.5477452197        1.8522323462
 H         -5.2825050262        4.9970848844        1.6271572900
 H         -4.5041853862        5.9660453290       -0.5034098997
 H         -3.9737549399        4.4920012876       -2.4085509721
 H         -4.2148260197        2.0420724248       -2.1793169091
 H         -2.6015899338        2.2320179947        0.4649507767
 H         -0.2264617872        2.4793401334        0.5266257003
 H          1.6666805507        2.6718702560       -0.2084318124
 H          4.0908173674        2.9189990654       -0.1980761684
 H          7.9351398383       -1.7556582264        1.5219482821
 H          7.7777427618       -4.1792624041        1.0749635060
 H          6.5697710438       -4.9915060616       -0.9170412142
 H          5.5183300771       -3.3809880962       -2.4626308255
 H          5.6763442247       -0.9569651522       -2.0167003685
 H          9.0444742668       -1.1575896663       -1.3920838478
 H         11.3767518220       -1.8830517596       -1.5142224212
