  75
 
 N        -10.1433490536        1.1508618508        1.3268728923
 C         -9.0145329650        1.0208565115        1.1122644416
 C         -7.6541767042        0.8646626660        0.8525174091
 C         -6.9503076274       -0.2569238449        1.3385911899
 C         -5.6222772680       -0.4175439424        1.0604557559
 C         -4.9007164103        0.5329182120        0.2949941604
 C         -3.5046848886        0.3676921726        0.0204376712
 C         -2.6581534296        1.4898969178       -0.0715676188
 C         -1.2917336878        1.4039878760       -0.1756161027
 C         -0.5251442995        2.6304201308       -0.4067724002
 C         -0.7859089610        3.7910011745        0.3255506545
 C         -0.0859180288        4.9555231042        0.0760961027
 C          0.8788078582        4.9915895161       -0.9192726711
 C          1.1366311927        3.8512839023       -1.6640176837
 C          0.4470249893        2.6818938815       -1.4108603093
 C         -0.6634176287        0.1056965424       -0.1753871535
 C          0.7494676473       -0.0661308526       -0.0790980003
 C          1.5681666056        0.8564690862        0.6260251443
 C          2.9203361521        0.6923598121        0.7201506202
 C          3.5602649912       -0.4064948507        0.1134225221
 N          4.9319365193       -0.5625984778        0.1907803630
 C          5.7672100811        0.5594554067        0.2242456726
 C          5.4655221908        1.6864328558       -0.5444920091
 C          6.2928478135        2.7911489354       -0.5068307990
 C          7.4281577277        2.7909974390        0.2898985987
 C          7.7332267526        1.6730426359        1.0521130086
 C          6.9121273166        0.5632041797        1.0247268263
 C          5.4958332711       -1.8425164569        0.2338897038
 C          4.8714435542       -2.8650814332        0.9526094540
 C          5.4288423003       -4.1280558249        0.9852522993
 C          6.6114492220       -4.3909535565        0.3100378471
 C          7.2373699557       -3.3773212446       -0.4005304255
 C          6.6880662244       -2.1112082536       -0.4429754948
 C          2.7608431667       -1.3461048207       -0.5697402796
 C          1.4071031490       -1.1859582854       -0.6521778237
 C         -1.5221482066       -1.0128820823       -0.2332908690
 C         -2.8878035051       -0.9246600968       -0.1460145421
 C         -3.6822758473       -2.1455858947       -0.3280129162
 C         -4.7684586258       -2.1622862060       -1.2062039812
 C         -5.4867373832       -3.3230940155       -1.4158143628
 C         -5.1409022955       -4.4898764342       -0.7519368449
 C         -4.0611861291       -4.4884184392        0.1167398838
 C         -3.3355447203       -3.3304665770        0.3227878665
 C         -5.6156007187        1.6710895867       -0.1530688214
 C         -6.9488001573        1.8293592966        0.1021370138
 H         -7.4770411042       -0.9847782726        1.9406046531
 H         -5.0976884376       -1.2645071483        1.4753823004
 H         -3.1066571260        2.4724926684       -0.0498231523
 H         -1.5243445420        3.7652027172        1.1146199509
 H         -0.2922136801        5.8405701808        0.6611288299
 H          1.4218556963        5.9044193399       -1.1153878279
 H          1.8762291890        3.8775953801       -2.4515255716
 H          0.6356910579        1.8029290068       -2.0098850564
 H          1.1007885318        1.6736657016        1.1516767544
 H          3.5095801404        1.3899083414        1.2970995186
 H          4.5912165173        1.6785346642       -1.1778315006
 H          6.0544163610        3.6552134261       -1.1087862933
 H          8.0722376407        3.6566513019        0.3156799984
 H          8.6128192290        1.6692558250        1.6783191075
 H          7.1414234141       -0.3009517428        1.6303378400
 H          3.9612012867       -2.6542520597        1.4941184016
 H          4.9417639088       -4.9104014398        1.5479593900
 H          7.0436934135       -5.3794617984        0.3388413360
 H          8.1554331037       -3.5774325524       -0.9324409133
 H          7.1669466063       -1.3266254120       -1.0097084893
 H          3.2378084176       -2.1788008306       -1.0657329600
 H          0.8324976072       -1.8946900585       -1.2282004960
 H         -1.0842543728       -1.9954666635       -0.3291057812
 H         -5.0363995968       -1.2598648765       -1.7369381493
 H         -6.3226697541       -3.3186253395       -2.1010196847
 H         -5.7097054918       -5.3943330991       -0.9113495135
 H         -3.7870940150       -5.3942675693        0.6390412584
 H         -2.5068072540       -3.3313823815        1.0170325985
 H         -5.1105793967        2.4079714321       -0.7603864640
 H         -7.4832266750        2.6904047211       -0.2758728996
