  109
 
 C          6.6624628666        2.1128815136       -1.5516655104
 C          7.1274491152        0.9848801896       -0.6813563878
 C          8.4764641304        0.6798159184       -0.5887018429
 C          8.9234102355       -0.3642784851        0.2141665801
 N         10.2966588268       -0.6475631069        0.2966912654
 C         11.2911967696        0.2637637511        0.5858341329
 C         11.1903606233        1.6128083138        0.8987738029
 C         12.3570202706        2.3006126440        1.1739225130
 C         13.5979620113        1.6671776086        1.1488402987
 C         13.7027171208        0.3196712189        0.8611815920
 C         12.5444934029       -0.3928597530        0.5806287508
 C         12.2805979864       -1.7704219027        0.2667433657
 C         13.0899798929       -2.8868427439        0.1046281162
 C         12.4985740169       -4.0914415711       -0.2250354126
 C         11.1203411184       -4.1875122008       -0.4071778215
 C         10.2939336048       -3.0908227792       -0.2511459918
 C         10.8796428300       -1.8825657914        0.1024575035
 C          8.0054072609       -1.1209820350        0.9341823385
 C          6.6587464317       -0.8267703249        0.8392607931
 C          6.2087570736        0.2186251514        0.0423587680
 C          4.7570025705        0.5019213468       -0.0439308472
 C          4.0363690643        0.0501038882       -1.1430811294
 C          2.6829823868        0.2993311577       -1.2592924448
 C          2.0285821833        1.0089978851       -0.2567195099
 N          0.6590430025        1.2871353672       -0.3644080257
 C          0.0804642594        2.5335877350       -0.2361565896
 C          0.6739159877        3.7637777196        0.0149808215
 C         -0.1447108225        4.8769134583        0.0736452069
 C         -1.5195270466        4.7786735248       -0.1227394184
 C         -2.1129715013        3.5595760628       -0.4018771266
 C         -1.3123696588        2.4298389125       -0.4655134864
 C         -1.5783958787        1.0415640622       -0.7445975264
 C         -2.7341305458        0.3470539523       -1.0447720291
 C         -2.6656892194       -1.0427163879       -1.2251554760
 C         -3.8370634479       -1.8465828131       -1.5743695883
 O         -3.6674092101       -2.8758765234       -2.3131464854
 C         -5.1492425494       -1.4746463616       -1.1211919870
 C         -6.2765972104       -2.0403220893       -1.7674643586
 C         -7.5525689543       -1.7374569426       -1.3744298326
 C         -7.7671994861       -0.8720009622       -0.2960315514
 N         -9.0906798994       -0.5353667845        0.1106900684
 C         -9.6378346769        0.6533083321       -0.3202221263
 C         -8.8916162811        1.4874256114       -1.1675453332
 C         -9.4035635435        2.6866316038       -1.6067586597
 C        -10.6755135410        3.0789193674       -1.2142620933
 C        -11.4205912293        2.2544077358       -0.3910167919
 C        -10.9318760826        1.0387149551        0.0684525512
 C        -11.7964609150        0.1667131836        0.9527350308
 C        -12.1519209438        0.9519525087        2.2310778504
 C        -13.0803189742       -0.1960754139        0.1796332500
 C        -11.0904335026       -1.1114322479        1.3503308022
 C        -11.7368372023       -2.0317292051        2.1644045568
 C        -11.1303876606       -3.2089136487        2.5635461917
 C         -9.8346815454       -3.4863545584        2.1513350046
 C         -9.1678130973       -2.5939886023        1.3438327671
 C         -9.7830239920       -1.4034588763        0.9256969680
 C         -6.6699828388       -0.3505147453        0.3967914548
 C         -5.3908833616       -0.6485952444       -0.0002448589
 C         -1.4072166392       -1.6800947483       -1.1687257566
 C         -0.2480484491       -0.9994331805       -0.8814207626
 C         -0.3306774626        0.3756604539       -0.6749756253
 C          2.7452305798        1.4540119110        0.8507844972
 C          4.1045050576        1.2118423493        0.9690981385
 C          4.8625359020        1.7008649725        2.1658403112
 H          5.9227494631        2.7204279835       -1.0337115672
 H          7.4978897413        2.7425845084       -1.8470865111
 H          6.1910925751        1.7229477616       -2.4535106425
 H          9.1960315334        1.2505714177       -1.1578290949
 H         10.2321493549        2.1081767789        0.9366164787
 H         12.3057918497        3.3519786417        1.4169268578
 H         14.4875896236        2.2396269842        1.3671921951
 H         14.6634878084       -0.1731642182        0.8573457800
 H         14.1597496606       -2.8110963846        0.2305578644
 H         13.1107910698       -4.9720576105       -0.3535342929
 H         10.6885894404       -5.1397520664       -0.6792011313
 H          9.2291555517       -3.1715905423       -0.4092481475
 H          8.3496550688       -1.9220526089        1.5707200022
 H          5.9408458159       -1.4152470914        1.3921694521
 H          4.5476106992       -0.5006860652       -1.9193582036
 H          2.1345644965       -0.0326134808       -2.1278481598
 H          1.7412095858        3.8538895370        0.1463373368
 H          0.2933432471        5.8441584263        0.2715836648
 H         -2.1275590239        5.6694558611       -0.0659712818
 H         -3.1768747478        3.4857528896       -0.5707225201
 H         -3.6699942612        0.8705120077       -1.1631418497
 H         -6.0915041454       -2.7097004894       -2.5955355432
 H         -8.4023684560       -2.1580142590       -1.8933821646
 H         -7.9059928285        1.1758209025       -1.4754726412
 H         -8.8132556169        3.3150439714       -2.2563231471
 H        -11.0849152602        4.0185955405       -1.5521418549
 H        -12.4106726089        2.5716562328       -0.1034821109
 H        -12.7917027425        0.3614699618        2.8798509456
 H        -11.2446218200        1.2031696179        2.7772422836
 H        -12.6719442467        1.8728237295        1.9850781980
 H        -13.7354143984       -0.8120799939        0.7882393954
 H        -12.8266731907       -0.7495975549       -0.7226117524
 H        -13.6227592283        0.6997221410       -0.1072873450
 H        -12.7419298416       -1.8302024713        2.5003105442
 H        -11.6620196517       -3.9035996383        3.1955816896
 H         -9.3450110097       -4.3973900067        2.4603221819
 H         -8.1587559542       -2.8041155391        1.0257390602
 H         -6.8417973220        0.2804078321        1.2578333200
 H         -4.5573379415       -0.2781281714        0.5773839696
 H         -1.3844647800       -2.7467819043       -1.3408479750
 H          0.6930195609       -1.5233122655       -0.8058227559
 H          2.2241215640        1.9822775092        1.6358924019
 H          5.1370131521        0.8633252307        2.8063283349
 H          4.2611944943        2.3953428386        2.7468967348
 H          5.7836164712        2.1946217074        1.8613787461
