  84
 
 C         -6.4499362910       -1.7257821256       -0.0864265162
 C         -5.7693766493       -0.7887294988       -1.0908735890
 C         -5.8527277303       -1.3700297200       -2.5064842264
 C         -6.3610221721        0.6027965467       -1.0323716377
 C         -7.6492854978        1.0085149263       -1.3052734003
 C         -7.9658156001        2.3568836833       -1.1912997365
 C         -7.0075414481        3.2856047587       -0.8071266883
 C         -5.7113184324        2.8896208313       -0.5269702377
 C         -5.3911265923        1.5431623287       -0.6407950643
 C         -4.1420504519        0.8487080125       -0.4242785651
 C         -2.9026802103        1.3123710682       -0.0051951812
 C         -1.8430146244        0.4302351976        0.1156595796
 C         -2.0259957132       -0.9295805691       -0.2096687692
 C         -3.2951011268       -1.4030453150       -0.5896456479
 C         -4.3364305280       -0.5205001307       -0.6925340858
 N         -0.9503675557       -1.7875148662       -0.1988507521
 C         -1.1822719498       -3.1898653931       -0.3349190976
 C         -1.4052546173       -3.9430711800        0.8094687814
 C         -1.6391581354       -5.3030784661        0.6952582205
 C         -1.6509785746       -5.9054539449       -0.5520862746
 C         -1.4270935226       -5.1491309544       -1.6916812452
 C         -1.1926236218       -3.7890467752       -1.5886675655
 C          0.3355007957       -1.3149090045       -0.1907107337
 C          1.4215386593       -2.1467283314       -0.5206308982
 C          2.6897373781       -1.6451057682       -0.6136068765
 C          2.9610396104       -0.2740670846       -0.3918495035
 C          4.2787497040        0.2684310059       -0.5403039906
 C          4.4896251938        1.6734806656       -0.6451269679
 C          5.7234927208        2.2433769719       -0.7788477355
 C          6.9030943811        1.4602659874       -0.8092072200
 C          8.1548559815        2.0561513812       -0.9264082528
 N          9.1795214478        2.5801035504       -1.0243052444
 C          6.7590579814        0.0602216843       -0.7232743030
 N          7.7480491561       -0.8247809101       -0.7389291589
 S          7.1012328852       -2.3248239885       -0.6162159120
 N          5.5188319388       -1.8642177754       -0.5346248089
 C          5.4485472684       -0.5404064176       -0.6049932936
 C          1.8699748352        0.5292004019        0.0086834323
 C          0.5926070888        0.0371943673        0.1225929344
 C         -0.5250197252        0.8664484565        0.7173651393
 C         -0.2834117491        2.3440729133        0.4471989032
 C         -0.1184455225        3.2799905401        1.4573562503
 C          0.1083387454        4.6120878290        1.1480258076
 C          0.1697812506        5.0232486661       -0.1714693151
 C          0.0043103902        4.0936990038       -1.1864237612
 C         -0.2196464335        2.7652250060       -0.8789088083
 C         -0.5761337304        0.5704691488        2.2280946072
 C          0.5823008118        0.2623976106        2.9328548113
 C          0.5377854093        0.0114155244        4.2935806253
 C         -0.6651840946        0.0620497286        4.9760874796
 C         -1.8222050225        0.3760636519        4.2848696354
 C         -1.7784771661        0.6278648870        2.9243869177
 H         -7.4984828702       -1.8525650563       -0.3432385206
 H         -5.9681485916       -2.7003533147       -0.0953946846
 H         -6.3855719033       -1.3139011404        0.9186308830
 H         -5.3638419242       -2.3403061906       -2.5445316348
 H         -6.8918314831       -1.4924126337       -2.8009946078
 H         -5.3665200871       -0.7051825569       -3.2175290125
 H         -8.4056708869        0.2986684890       -1.6056508897
 H         -8.9714783748        2.6882169244       -1.4055314862
 H         -7.2786877618        4.3283077524       -0.7270282684
 H         -4.9653058880        3.6114142513       -0.2293449052
 H         -2.7629262264        2.3543701431        0.2377580612
 H         -3.4308339252       -2.4490056172       -0.8120366318
 H         -1.3923812266       -3.4613912351        1.7759415668
 H         -1.8115313096       -5.8911164215        1.5837324279
 H         -1.8336352292       -6.9658346040       -0.6368388147
 H         -1.4346987868       -5.6174475159       -2.6642295884
 H         -1.0173360041       -3.1893341038       -2.4696138510
 H          1.2488570428       -3.1925891915       -0.7197258937
 H          3.5099137749       -2.2933862385       -0.8730082837
 H          3.6315755296        2.3265996323       -0.6578141856
 H          5.8236159206        3.3156834813       -0.8678410754
 H          2.0411448608        1.5582144864        0.2811520772
 H         -0.1620321123        2.9747328093        2.4920538508
 H          0.2383293624        5.3291830814        1.9456239751
 H          0.3481523771        6.0615561323       -0.4098869463
 H          0.0530666752        4.4051087271       -2.2197841716
 H         -0.3435207366        2.0422372218       -1.6729245171
 H          1.5346463546        0.2218421843        2.4262043023
 H          1.4520231366       -0.2243276232        4.8188190441
 H         -0.6989366116       -0.1371554470        6.0369889789
 H         -2.7677132199        0.4276418421        4.8047064370
 H         -2.6934951352        0.8781721905        2.4101097010
