  112
 
 N          0.3626785529       -1.9097136155       -3.4571695244
 C          0.2798112472       -1.3777564437       -2.4331218536
 C          0.1840453908       -0.7769312774       -1.1874205611
 C          1.2064465016        0.1144776805       -0.7237211498
 N          2.3831693298        0.2517896986       -1.4729116038
 C          2.9398229006        1.4657320780       -1.8268804787
 C          2.3319477789        2.7090370871       -1.9062140253
 C          3.1138538672        3.7820639858       -2.2917328284
 C          4.4593736041        3.6186713203       -2.6055956453
 C          5.0524539275        2.3681162203       -2.5878713742
 C          4.2860839159        1.2775667063       -2.2102526131
 C          4.5359614732       -0.1367070483       -2.1202340204
 C          5.6565472952       -0.9202199525       -2.3426924128
 C          5.5557551458       -2.2886920070       -2.1627476197
 C          4.3535638455       -2.8728174079       -1.7791160982
 C          3.2259989860       -2.1096660068       -1.5369321665
 C          3.3256832565       -0.7347594373       -1.6971109943
 C          1.0121883130        0.8448822464        0.4301405627
 N          2.0210193805        1.6982611720        0.9129360363
 C          1.9754799723        3.0802185922        0.9462830751
 C          0.8847165856        3.9247823804        0.8201606414
 C          1.1176076637        5.2858000762        0.8761507304
 C          2.4028763290        5.7952302490        1.0419148365
 C          3.4947722355        4.9563343115        1.1575098803
 C          3.2854405500        3.5854057286        1.1123823057
 C          4.1615073795        2.4490562391        1.1803419538
 C          5.5396617227        2.2954909144        1.2821303651
 C          6.0799605835        1.0252854423        1.3102159968
 C          5.2548548041       -0.1029937307        1.3101577800
 C          5.6299344704       -1.4900703614        1.4124542009
 C          6.9004649330       -2.0558832784        1.4402709385
 C          7.0354907638       -3.4265821544        1.5297650271
 C          5.9170612033       -4.2502883223        1.6004410354
 C          4.6442959520       -3.7124374983        1.5786224268
 C          4.5130156861       -2.3387864499        1.4802898814
 S          2.9978933219       -1.4646541651        1.4012330426
 C          3.8609111803        0.0426529331        1.2340874320
 C          3.3224791262        1.3124417512        1.0887103916
 C         -0.1887117696        0.7130527490        1.1943597899
 C         -0.2753443398        1.3082309438        2.4433583878
 N         -0.3476634763        1.8357276523        3.4705110769
 C         -1.2124952060       -0.1755855784        0.7293742429
 N         -2.3879930328       -0.3193185853        1.4790851978
 C         -2.9468254113       -1.5396007810        1.8082085860
 C         -2.3410638293       -2.7853929380        1.8611420565
 C         -3.1240907723       -3.8650865376        2.2251368240
 C         -4.4692796171       -3.7063565013        2.5426955301
 C         -5.0605373569       -2.4548565554        2.5506950263
 C         -4.2926267592       -1.3578111292        2.1955595646
 C         -4.5404353367        0.0582954469        2.1350295307
 C         -5.6603644020        0.8374407947        2.3751788482
 C         -5.5586763779        2.2094046063        2.2255277619
 C         -4.3555570600        2.8006454270        1.8562542238
 C         -3.2283672686        2.0421586637        1.5980471321
 C         -3.3293774987        0.6639564518        1.7248007069
 C         -1.0229935880       -0.8970734487       -0.4317335169
 N         -2.0501796740       -1.7172924370       -0.9330699658
 C         -2.0493556563       -3.0988805951       -0.9966318884
 C         -0.9867847567       -3.9815474888       -0.8925875877
 C         -1.2643777234       -5.3325275316       -0.9788449856
 C         -2.5658157674       -5.7958150964       -1.1535253704
 C         -3.6294823909       -4.9191323767       -1.2496863463
 C         -3.3751561853       -3.5572194575       -1.1742883167
 C         -4.2138015969       -2.3918382214       -1.2201867536
 C         -5.5857875842       -2.1903553801       -1.3230077394
 C         -6.0834663214       -0.9025302848       -1.3284114973
 C         -5.2215337425        0.1976323419       -1.3034845005
 C         -5.5498236440        1.5982229755       -1.3797537134
 C         -6.8006440654        2.2066048348       -1.4016522088
 C         -6.8895152803        3.5825808604       -1.4640566915
 C         -5.7440145782        4.3698169662       -1.5133409213
 C         -4.4899457005        3.7894597883       -1.4967871682
 C         -4.4050538963        2.4105212521       -1.4255676780
 S         -2.9201056946        1.4848995243       -1.3562505682
 C         -3.8336592995        0.0039363189       -1.2247277267
 C         -3.3382761722       -1.2857813719       -1.1037948475
 H          1.2810310563        2.8315253025       -1.6931185058
 H          2.6692961370        4.7638693587       -2.3501183810
 H          5.0419478579        4.4814148351       -2.8914475804
 H          6.0861617759        2.2406837627       -2.8706156879
 H          6.5873793747       -0.4677963084       -2.6488325229
 H          6.4186583142       -2.9158736130       -2.3282172237
 H          4.2995391325       -3.9444604330       -1.6619613342
 H          2.2995537070       -2.5754614026       -1.2435490844
 H         -0.1119814524        3.5347341835        0.6826424056
 H          0.2857600333        5.9684752851        0.7883103221
 H          2.5445904129        6.8649240306        1.0796215753
 H          4.4903420401        5.3539669247        1.2816019213
 H          6.1781168240        3.1635542230        1.3317387319
 H          7.1490604722        0.8923699211        1.3656329164
 H          7.7715190052       -1.4211025603        1.3860460470
 H          8.0211689475       -3.8668031725        1.5458905830
 H          6.0429634745       -5.3199863939        1.6714071850
 H          3.7701583322       -4.3425703949        1.6324474052
 H         -1.2905160169       -2.9050858882        1.6445155383
 H         -2.6809640516       -4.8485372183        2.2627724089
 H         -5.0530190066       -4.5740521143        2.8105817063
 H         -6.0940985055       -2.3318099583        2.8358931536
 H         -6.5912228093        0.3787766825        2.6718389663
 H         -6.4209475090        2.8335989410        2.4050166796
 H         -4.2998850850        3.8746403651        1.7639547872
 H         -2.3008992802        2.5150569586        1.3201661137
 H          0.0228167595       -3.6280151788       -0.7514676657
 H         -0.4551228959       -6.0437643968       -0.9087060966
 H         -2.7426237742       -6.8591580155       -1.2150129252
 H         -4.6375593307       -5.2808075663       -1.3825826334
 H         -6.2526523131       -3.0354781805       -1.3915090732
 H         -7.1473426202       -0.7330818967       -1.3847898102
 H         -7.6925974348        1.6003183155       -1.3637574860
 H         -7.8598951823        4.0557089873       -1.4753294132
 H         -5.8338938174        5.4443425232       -1.5631436098
 H         -3.5950546391        4.3911032798       -1.5338073772
