  50
 
 C         -2.4129517416        4.9027990486       -0.2606255558
 C         -2.7480201465        3.4442853271       -0.1732954171
 C         -4.0914123741        3.0509363151       -0.1452298801
 C         -4.4576966115        1.7242114640       -0.0824541435
 C         -3.4588969590        0.7596963497       -0.0312168013
 C         -3.4626785756       -0.6732809505        0.0186665925
 C         -4.4681423113       -1.6278274803        0.0594200881
 C         -4.0983898422       -2.9548285747        0.1255886878
 Br        -5.4927671941       -4.2649720827        0.1734137205
 C         -2.7639624916       -3.3788005092        0.1690740174
 C         -2.4241560123       -4.8325838195        0.2615006081
 C         -1.7633516660       -2.4212683244        0.1272868221
 C         -2.1080709512       -1.0803637473        0.0369080117
 N         -1.2983999190        0.0325052625        0.0048226803
 C          0.1051951439        0.0264896804        0.0131189801
 C          0.8094691878        0.7994927047        0.9266768159
 C          2.1927747375        0.7926930676        0.9286803150
 C          2.9152160682        0.0124655002        0.0336646950
 C          4.4346388605       -0.0287960633        0.0085379826
 C          4.9248336691        0.4364161993       -1.3700581176
 C          4.8994844633       -1.4689075926        0.2676403990
 C          5.0672468864        0.8749924969        1.0701196627
 C          2.1927914794       -0.7600973396       -0.8735322914
 C          0.8129533114       -0.7549486951       -0.8937327515
 C         -2.1027186840        1.1546023371       -0.0359307270
 C         -1.7442834618        2.4921329907       -0.1220562747
 H         -2.8063743914        5.4339598772        0.6055975206
 H         -1.3374708508        5.0552813076       -0.3023678794
 H         -2.8620059952        5.3424514678       -1.1503643480
 H         -4.8543794097        3.8147801012       -0.1834956482
 H         -5.4979276119        1.4360394288       -0.0768732050
 H         -5.5083088830       -1.3423701095        0.0434863480
 H         -1.3472006488       -4.9748882967        0.2956281831
 H         -2.8226890174       -5.3729928843       -0.5973724419
 H         -2.8644079728       -5.2714503929        1.1569209761
 H         -0.7281880109       -2.7240240975        0.1763569373
 H          0.2701992315        1.3976435452        1.6462348376
 H          2.6994885231        1.4070538250        1.6545921084
 H          4.5579185498       -0.2106454020       -2.1618308195
 H          6.0121568121        0.4294794826       -1.4017682910
 H          4.5802690388        1.4489363392       -1.5700126484
 H          5.9862599271       -1.5158377006        0.2713526841
 H          4.5360457314       -1.8135049145        1.2336247249
 H          4.5331298533       -2.1484888781       -0.4967015865
 H          6.1510549585        0.8046691873        1.0051447296
 H          4.7714802886        0.5703650568        2.0713675919
 H          4.7896135223        1.9151101040        0.9156806652
 H          2.7111951515       -1.3779232822       -1.5909422291
 H          0.2769686768       -1.3462368306       -1.6214215403
 H         -0.7055293383        2.7855515012       -0.1598267886
