  54
 
 C          5.4105983279       -1.1856346626       -0.2233968117
 C          4.8777218879       -0.3967060724        0.7893998689
 C          3.5941287751        0.0950117299        0.6913454014
 C          2.8059309717       -0.2019368626       -0.4287754062
 N          1.5026371468        0.2804282713       -0.5338162630
 C          0.5473533581       -0.4661024388       -1.2350133812
 C          0.4721736537       -1.8536610380       -1.0889331176
 C         -0.4868572950       -2.5691098961       -1.7743580870
 C         -1.3845653720       -1.9194108237       -2.6138493766
 C         -1.3094056649       -0.5430612942       -2.7661522424
 C         -0.3530936050        0.1843015385       -2.0890177746
 C          1.1639408147        1.5209354923       -0.0226241539
 C          2.0716516382        2.5902430326       -0.0975256011
 C          1.7096788843        3.8661931211        0.2398303962
 C          0.3886384688        4.1330093479        0.6895669657
 C         -0.5202427957        3.1134309343        0.7821446086
 C         -0.1781462701        1.7891521147        0.4708565820
 N         -1.0889752658        0.7793943076        0.7035192759
 C         -2.4200582847        0.7923407784        0.2957856223
 C         -3.1037780104        1.7428577835       -0.4336053111
 C         -4.4319947074        1.4835630230       -0.7720089696
 C         -5.0475231919        0.2948561857       -0.3874466183
 C         -4.3606203793       -0.6775295769        0.3156814288
 C         -3.0261429086       -0.4446552602        0.6579879316
 C         -2.0311888294       -1.2179973110        1.3134894607
 C         -2.0246588501       -2.4794051531        1.9159719401
 C         -0.8764624338       -2.9095760110        2.5475162312
 C          0.2662244959       -2.1054461128        2.6100985540
 C          0.2893926662       -0.8552027861        2.0043903087
 C         -0.8413585992       -0.4296879738        1.3336050167
 C          3.3544924791       -0.9885040591       -1.4518881431
 C          4.6402056300       -1.4735766069       -1.3424931583
 H          6.4166108855       -1.5671664443       -0.1419157269
 H          5.4683845335       -0.1704745807        1.6647220160
 H          3.1855138852        0.7017928159        1.4860008918
 H          1.1546067614       -2.3538885803       -0.4185170304
 H         -0.5432203286       -3.6397359030       -1.6476057613
 H         -2.1366905791       -2.4830159240       -3.1437852420
 H         -1.9975311333       -0.0338310264       -3.4243792914
 H         -0.2791592704        1.2541678617       -2.2203333417
 H          3.0641199030        2.3947046923       -0.4770679973
 H          2.4166375618        4.6754310459        0.1497655641
 H          0.1150616484        5.1358779802        0.9772586978
 H         -1.5097365522        3.3042031188        1.1708017225
 H         -2.6331848100        2.6609370075       -0.7512012059
 H         -4.9855001519        2.2149200707       -1.3410324904
 H         -6.0810597876        0.1272545208       -0.6567367566
 H         -4.8386840250       -1.6060637551        0.5896630199
 H         -2.9096535041       -3.0976208287        1.8911187957
 H         -0.8579230744       -3.8822085856        3.0190543644
 H          1.1394831394       -2.4560453328        3.1390104228
 H          1.1673282682       -0.2331869622        2.0775882521
 H          2.7659308887       -1.1967754682       -2.3327251435
 H          5.0514447160       -2.0742399703       -2.1402678334
