  113
 
 C         -0.1797660229        2.2230128000        4.7509471135
 C          0.2359089503        1.4347374699        3.5456029143
 C          1.2929682932        0.5351709800        3.6033433935
 C          1.6604849187       -0.2025017343        2.4986766119
 C          0.9712640914       -0.0796172308        1.2894657270
 C         -0.1006408878        0.8125902949        1.2253048711
 C         -0.4437289223        1.5556415386        2.3433671545
 C         -0.9344033711        0.9775195424       -0.0368944805
 C         -2.3535736060        0.6092730958        0.3216931288
 C         -2.6446889265       -0.7171770138        0.6251846389
 C         -3.9190375289       -1.1076277635        0.9771038255
 C         -4.9559933336       -0.1747207364        1.0474515908
 C         -6.3208381768       -0.5776310205        1.4307737727
 C         -6.9716266291        0.1157233695        2.4470739766
 C         -8.2358987517       -0.2551693532        2.8660832770
 C         -8.8695019080       -1.3325795296        2.2690019640
 C         -8.2367398256       -2.0248959655        1.2530874342
 C         -6.9663130124       -1.6595385313        0.8173688957
 C         -6.3493898121       -2.3948217405       -0.3022458461
 C         -5.8440718128       -1.7163868274       -1.4084628601
 C         -5.2768242375       -2.4128861185       -2.4591741616
 C         -5.2036939293       -3.7957117377       -2.4207977725
 C         -5.7140812325       -4.4802840968       -1.3304523094
 C         -6.2879916971       -3.7856340518       -0.2808982757
 C         -4.6645950567        1.1503507504        0.7730871479
 C         -3.3786757398        1.5518749556        0.4065612427
 C         -3.1509596094        2.9765333252        0.1114223388
 O         -4.0255655079        3.8205426529        0.2895847698
 C         -1.8299969968        3.3311669870       -0.4257764506
 C         -1.6256617842        4.6378338650       -0.8812095928
 C         -0.4202917012        5.0178411438       -1.4206850127
 C          0.6321424974        4.1016459269       -1.4957525219
 C          1.9114989263        4.4987334940       -2.1077259839
 C          1.8885154766        5.0949555473       -3.3662692142
 C          3.0591408406        5.4477237296       -4.0109652322
 C          4.2782454311        5.2099964543       -3.3976455016
 C          4.3141438073        4.6271533320       -2.1448194122
 C          3.1433402478        4.2661364239       -1.4818824630
 C          3.2396883186        3.7067214378       -0.1216763331
 C          4.1547697803        2.6944452967        0.1571710677
 C          4.2895288395        2.2008834549        1.4419274334
 C          3.5164978668        2.7154085718        2.4683208114
 C          2.6038489695        3.7218384621        2.2021647709
 C          2.4657529490        4.2151650585        0.9184699159
 C          0.4323692021        2.8077652995       -1.0315894442
 C         -0.7883250446        2.4041272110       -0.5089923606
 C         -0.4625225953        0.0598049997       -1.1490112672
 C         -1.1507409588        0.0873844114       -2.3532767999
 C         -0.7773586391       -0.6983174786       -3.4316225974
 C         -1.5213136171       -0.6530605461       -4.7321787341
 C          0.3241279649       -1.5329681652       -3.2745269744
 C          1.0188348010       -1.5793872158       -2.0854408100
 C          0.6381678279       -0.7849671963       -0.9991756586
 N          1.3402794606       -0.8395887343        0.1930146458
 C          2.4659908963       -1.7084081335        0.2934031470
 C          2.3007350428       -3.0422110465        0.6422616641
 C          3.3999400032       -3.8748679122        0.7231363722
 C          4.6886324173       -3.4121380845        0.4620074575
 C          5.8631545895       -4.3738148045        0.5599306262
 C          7.2033383057       -3.7041862211        0.2410238779
 C          5.6520047907       -5.5220851298       -0.4383903240
 C          5.9347019883       -4.9325394036        1.9889854175
 C          4.8343022194       -2.0727810358        0.1186475000
 C          3.7400234709       -1.2291159438        0.0332851994
 H          0.6798167759        2.4631315734        5.3730343376
 H         -0.6751887516        3.1460628749        4.4575115389
 H         -0.8798714453        1.6433273215        5.3547188236
 H          1.8366722542        0.4075984398        4.5284726482
 H          2.4882418382       -0.8912826861        2.5679448014
 H         -1.2751134265        2.2446671871        2.2718722406
 H         -1.8543150199       -1.4519086135        0.5783393852
 H         -4.1180685243       -2.1424960577        1.2118282789
 H         -6.4657797742        0.9444725760        2.9220133791
 H         -8.7238105441        0.2930923571        3.6586968316
 H         -9.8568764796       -1.6294769511        2.5911725271
 H         -8.7376351573       -2.8522011217        0.7706329004
 H         -5.9085016041       -0.6384153032       -1.4469943182
 H         -4.8928658760       -1.8736838966       -3.3124863862
 H         -4.7546895936       -4.3380860145       -3.2400931539
 H         -5.6644666427       -5.5593408147       -1.2971755636
 H         -6.6758296290       -4.3206146179        0.5746519931
 H         -5.4362488160        1.9067534828        0.8158501499
 H         -2.4485758445        5.3344152394       -0.8032286114
 H         -0.2752028502        6.0294153031       -1.7709334504
 H          0.9356632249        5.2609889963       -3.8484455030
 H          3.0202618780        5.9056433036       -4.9884260959
 H          5.1986268768        5.4849301388       -3.8917089224
 H          5.2634849533        4.4662833979       -1.6543496921
 H          4.7563058983        2.2896421967       -0.6451807708
 H          5.0030090465        1.4157219184        1.6465676319
 H          3.6276308420        2.3357664837        3.4723304849
 H          2.0003084523        4.1293047403        2.9994834302
 H          1.7666624225        5.0150301832        0.7217228072
 H          1.2380449542        2.0916428627       -1.0996654391
 H         -2.0015985395        0.7498665820       -2.4424129893
 H         -0.8532961944       -0.3597121214       -5.5416841296
 H         -1.9243755859       -1.6361214649       -4.9743477036
 H         -2.3414592068        0.0590723538       -4.6848684916
 H          0.6428760315       -2.1561724128       -4.0978072069
 H          1.8702777814       -2.2356547483       -1.9904393115
 H          1.3101476787       -3.4224079928        0.8462892623
 H          3.2404394927       -4.9068812798        0.9955027895
 H          7.2151025717       -3.3137376664       -0.7741200726
 H          8.0028124133       -4.4373876533        0.3269189885
 H          7.4142697207       -2.8964040918        0.9381600020
 H          5.5727417294       -5.1314028842       -1.4511716466
 H          6.4938941633       -6.2100468245       -0.3994406857
 H          4.7467181415       -6.0804615017       -0.2166760188
 H          6.0606618233       -4.1223207111        2.7047334941
 H          5.0321423473       -5.4790160844        2.2481849852
 H          6.7809072188       -5.6097933994        2.0828746632
 H          5.8080472858       -1.6629838056       -0.0928708217
 H          3.8684663792       -0.1909001725       -0.2333786914
