134
 xtb: 6.7.1 (edcfbbe)
C          -14.24358124607148        3.10062788960045       -2.72644603963168
C          -14.80368999016908        1.83391628129143       -2.69050580542338
C          -14.27941230168106        0.85997513726247       -1.86338167806788
C          -13.18334924651952        1.14602490083593       -1.04945752578030
N          -12.65121464646932        0.16394798542250       -0.20609222563598
C          -13.50563543812976       -0.73789394873862        0.43881766586223
C          -14.74473264212711       -0.31581081673090        0.92060989695238
C          -15.58626639769617       -1.21066219837806        1.55197530732608
C          -15.20695835431422       -2.53258696888196        1.72003535412263
C          -13.97597167856058       -2.95603141175411        1.24592427825189
C          -13.13030671014324       -2.07093938695186        0.60650736937217
C          -11.27289847521061        0.08187812555791       -0.01079741574768
C          -10.74890964808908       -0.28802409336015        1.23117093096332
C           -9.38889412225237       -0.38161941807960        1.41705245802585
C           -8.49170712306918       -0.09128936702335        0.38162129903378
C           -7.05200350261529       -0.18580847748287        0.57929335730618
C           -6.47415010963399       -1.40556007729234        1.04915783308983
C           -7.24910384987615       -2.55544392073361        1.24407708200203
C           -6.68356304242517       -3.75552576397070        1.65127458038739
C           -5.31613483048480       -3.84818699901808        1.81950514674499
C           -4.51634244673179       -2.73843469084626        1.58298038620888
C           -5.06340813793502       -1.50019135320800        1.22911011458053
C           -4.22537368339675       -0.37801202729061        0.93054411437579
C           -2.79431593418026       -0.47571468403507        1.14711576032762
C           -2.32246922435147       -0.80586854148608        2.42677572147702
C           -0.98265114910475       -0.82638523751797        2.71898246689913
C           -0.02362871967848       -0.55658110255322        1.72949916103158
C            1.36626552169758       -0.56681391252505        2.00414745807664
C            2.28076477395195       -0.32423655004464        1.02918162809652
C            1.87354765311312       -0.06036847121888       -0.30717933415477
C            2.80488382844290        0.17384371600522       -1.33507439691714
C            4.25906498547958        0.15703110421681       -1.05733287121371
C            4.90094451607352        1.32287930962579       -0.62144387750152
C            4.18060007764755        2.52751156008304       -0.40847261796516
C            4.81276263106491        3.66314155821055       -0.00645399331963
C            6.20795780215442        3.66505550397547        0.19317278546779
C            6.93313926479785        2.52891467745345        0.00367066268762
C            6.31157643623206        1.31495982447929       -0.39125905781509
C            7.04315475396189        0.13328875872272       -0.58526412193746
C            8.49993414935517        0.12079702611162       -0.34752691328317
C            9.38945962583888       -0.07002589033813       -1.40205896736383
C           10.75184460983183       -0.08094218112541       -1.18655114670266
C           11.26437594322732        0.08554467698752        0.10027249969901
N           12.64521527919767        0.06452740752702        0.32373795966878
C           13.45456543073501       -0.81841487965520       -0.39981870449561
C           14.73026248439809       -0.43371507769967       -0.81235536263982
C           15.52597599423100       -1.31094838784332       -1.52302162533050
C           15.06439395548541       -2.57763088144927       -1.84202834108899
C           13.79633836855838       -2.96316128367400       -1.43905465507380
C           12.99639853273233       -2.09643079070812       -0.72041810811145
C           13.21278477343654        0.92333329084615        1.27067043709090
C           14.28258869062787        0.50067621050742        2.05966695649034
C           14.84152364357198        1.35500207276346        2.98990896877624
C           14.34170726736524        2.63627005892678        3.15688353205409
C           13.27610594955565        3.05949445265010        2.37949350357641
C           12.71594998579264        2.21577060685935        1.44038386688359
C           10.37622780396196        0.27209501461143        1.15977949654092
C            9.01542595062447        0.29564571846366        0.93423714014798
C            6.39553684367893       -1.03865826720102       -1.00556228286804
C            7.09161168677211       -2.26512444367633       -1.17074944480647
C            6.44858176084814       -3.39346424050220       -1.57811109671742
C            5.06392865249467       -3.37088834374368       -1.83965465346341
C            4.35509904400926       -2.22133665867395       -1.67519184611248
C            4.98782274404181       -1.02303898260356       -1.25184234542138
C            2.36180716324916        0.41622396793918       -2.62993596803583
C            1.01590087281601        0.42783208608974       -2.93242916960838
C            0.05836819828972        0.19762874715999       -1.93819382585892
C           -1.33365320727847        0.17235182385372       -2.21727661059519
C           -2.24634145727074       -0.04140059954434       -1.23520090397983
C           -1.85038691688075       -0.23742787804745        0.11498094174758
C           -0.46533035904069       -0.27571151166554        0.41221545622934
C            0.48857931580680       -0.04260444700223       -0.61007951660160
C           -4.80983276158383        0.85013769893589        0.47795633739122
C           -4.03752249310461        2.00507849753269        0.31365492921934
C           -4.60439395217188        3.21252285285170       -0.06665275917159
C           -5.97138865573305        3.30257030643830       -0.24545707230022
C           -6.76864051999718        2.18678581481551       -0.03797943461815
C           -6.22040077201536        0.94396792074766        0.30330304632100
C           -9.02676226469385        0.29230051016749       -0.85464663163162
C          -10.38600727724768        0.36761702586129       -1.05282155708359
C          -12.62573861760384        2.42417863580660       -1.08611709739556
C          -13.15285753935820        3.38876794745591       -1.92223807442653
H          -14.65387460785428        3.87174558071493       -3.35965895301891
H          -15.65013352419519        1.61261628106859       -3.31120620838532
H          -14.71028007524482       -0.12304784008645       -1.84529706746830
H          -15.03711820966323        0.71332113731054        0.80336689675000
H          -16.54194309732738       -0.87879783852909        1.91945952585647
H          -15.86732991238834       -3.23748768471877        2.20234537903488
H          -13.67654216602791       -3.99285925245791        1.34884896319968
H          -12.17745062072930       -2.40805442193472        0.21480512154251
H          -11.42270196367861       -0.49974161758942        2.04918365471635
H           -9.00097484237595       -0.65376209634125        2.38841016899662
H           -8.31166901347544       -2.52424137196446        1.04078335330990
H           -7.31649228654236       -4.62994603722454        1.78207732412587
H           -4.86213011586300       -4.79934336788350        2.07837963321914
H           -3.44527582210689       -2.85582018308809        1.63727347252230
H           -3.04500393578957       -1.01202975828236        3.20231248501325
H           -0.65007622000862       -1.06923978511843        3.71672846099221
H            1.68650406317554       -0.80302444255434        3.00824659847722
H            3.33827280432535       -0.34386938074065        1.24781406480656
H            3.12256094666254        2.54351049667931       -0.59911212940714
H            4.27165638471642        4.59817743632666        0.10513059598118
H            6.71553299393162        4.59928679294311        0.44307577783425
H            8.01334516183466        2.54735299137338        0.11966888556483
H            9.00137710227647       -0.21151292074645       -2.39967979941554
H           11.42897007626478       -0.23773307928390       -2.01237879739069
H           15.08918032594623        0.54203826205562       -0.57945757431898
H           16.50749494589323       -1.02679025611479       -1.83170912691322
H           15.67964561520490       -3.28909811005733       -2.37628735939664
H           13.42034591260702       -3.97063179766564       -1.64747960276698
H           12.00690375339340       -2.41137980505494       -0.37817811203606
H           14.66615872330483       -0.49759733394092        1.94309979034741
H           15.67167627969604        1.02769529759606        3.58715881717634
H           14.78929969741751        3.31820766680243        3.86113997787933
H           12.89506739378425        4.07169310778234        2.46680816697282
H           11.89988502688940        2.55575584655451        0.80789822369596
H           10.76383255676559        0.41277380532345        2.15886022411584
H            8.33828321823536        0.45524055530888        1.76185968983904
H            8.13981266427741       -2.29235656714290       -0.92782401986886
H            6.97513461821918       -4.32448352356049       -1.64360498774839
H            4.55244631424170       -4.27797705087355       -2.10800855195335
H            3.28086577259029       -2.19450745479699       -1.83026180025562
H            3.09231134141530        0.63195085925443       -3.39900476360311
H            0.68864974153897        0.65235405846937       -3.93866993736737
H           -1.65391511132705        0.34927906348932       -3.23544078610195
H           -3.29964811106533       -0.05982266619384       -1.47179114153953
H           -2.97443035230802        1.95575585677207        0.50928247203682
H           -3.97415784202677        4.07835304761658       -0.17368524416243
H           -6.42619862086156        4.24235455045233       -0.49700478780920
H           -7.83929617700384        2.28547627422568       -0.10799540056080
H           -8.35606699314684        0.49514585855187       -1.67600557602173
H          -10.77740593238056        0.64428440063872       -2.01998524362336
H          -11.78331668581315        2.65550532088217       -0.43829492678220
H          -12.71364732984014        4.38299496400128       -1.91997994078880
