71

C     -5.215799    6.940374   -1.648661
C     -4.634193    6.721531   -0.260576
C     -4.364827    5.250368    0.063124
C     -3.271227    4.629152   -0.810500
C     -2.949807    3.227944   -0.373149
C     -2.010481    2.819436    0.564656
C     -2.026446    1.424461    0.686506
C     -2.948580    0.801209   -0.127060
S     -3.807065    1.890628   -1.068245
C     -2.988927   -0.622202   -0.016520
S     -3.911605   -1.793848   -0.781774
C     -3.128409   -3.053851    0.115764
C     -3.530970   -4.485335   -0.100380
C     -4.653603   -4.900561    0.854803
C     -5.007255   -6.386510    0.762331
C     -5.606915   -6.784913   -0.577303
C     -2.163183   -2.558966    0.983009
C     -2.099855   -1.163295    0.887502
P     -1.134063    0.171179    1.646396
O     -1.630124    0.293554    3.051795
C      0.528104    0.081491    1.161818
C      1.534173    0.095177    2.138624
C      2.884518    0.024833    1.785192
C      3.250277   -0.064390    0.438524
N      4.627976   -0.138591    0.071563
C      5.651499    0.642795    0.614148
C      5.631500    1.698243    1.551005
C      6.835440    2.319307    1.896529
C      8.032297    1.922942    1.316076
C      8.047450    0.904030    0.361029
C      6.843649    0.262660   -0.007176
C      6.536902   -0.760073   -0.951319
C      7.327536   -1.507840   -1.852313
C      6.738345   -2.494858   -2.645537
C      5.378894   -2.755294   -2.542633
C      4.574837   -2.027072   -1.660728
C      5.162770   -1.003557   -0.886834
C      2.257947   -0.080585   -0.546959
C      0.909706   -0.006528   -0.184575
H     -5.477064    7.994870   -1.784040
H     -6.123171    6.345509   -1.793059
H     -4.498861    6.674661   -2.430882
H     -5.341514    7.115542    0.478981
H     -3.710446    7.302329   -0.155806
H     -5.295559    4.677303   -0.034666
H     -4.070362    5.181351    1.118477
H     -3.573618    4.629229   -1.864090
H     -2.360173    5.237659   -0.748047
H     -1.371663    3.496823    1.117927
H     -3.838217   -4.631491   -1.142365
H     -2.655569   -5.127558    0.059075
H     -4.350526   -4.685379    1.887806
H     -5.550928   -4.297868    0.665594
H     -4.117325   -6.995329    0.959753
H     -5.732171   -6.620284    1.551215
H     -6.479887   -6.169295   -0.816004
H     -5.928018   -7.831147   -0.548390
H     -4.879835   -6.684847   -1.388358
H     -1.561365   -3.177468    1.637496
H      1.261849    0.153233    3.192900
H      3.630607   -0.002734    2.576601
H      4.705299    2.050053    1.994475
H      6.831006    3.129122    2.622694
H      8.960550    2.416210    1.592890
H      8.985226    0.613477   -0.104240
H      8.395994   -1.324191   -1.923069
H      7.351772   -3.070479   -3.333986
H      4.933691   -3.541638   -3.148078
H      3.521282   -2.273760   -1.574550
H      2.513437   -0.106673   -1.604328
H      0.155074   -0.010272   -0.970079
