  70
 
 C         -0.6106355873        1.4279801829       -3.5285575636
 C          0.8537997218        1.4467523864       -3.1114579448
 C          1.5236156639        0.0883008463       -3.3168580207
 C          2.8377756535       -0.0099914750       -2.5461024731
 O          2.4846734055        0.0337819428       -1.1833697876
 C          3.4223961046       -0.0661112136       -0.2095375600
 C          4.7793830621       -0.2711464908       -0.4042306674
 C          5.6188588581       -0.4064805990        0.6921547793
 C          5.1142995540       -0.3474907811        1.9774802516
 C          3.7585597235       -0.1373649593        2.1774528050
 C          2.9038265195        0.0185187631        1.0989513745
 C          1.4595813130        0.2709775333        1.2222962298
 C          0.5752719165       -0.7724351970        1.6205493586
 C          1.0473246977       -2.0071697162        2.0690563438
 C          0.1687496159       -3.0145007005        2.4713098239
 C         -1.1893485164       -2.7967219789        2.4325568064
 C         -1.6872187945       -1.5797201264        1.9613191284
 C         -0.8328068148       -0.5677609155        1.5249733458
 C         -1.3354459600        0.6597632428        0.9911687960
 C         -2.7790685008        0.7898661756        0.7546111827
 C         -3.5707668611        1.6720335685        1.4765103259
 C         -4.9379993008        1.7344046051        1.2667985632
 C         -5.5239328328        0.9094919357        0.3250056046
 C         -4.7513356958        0.0348693288       -0.4240758986
 C         -3.3789714728       -0.0241285110       -0.2272910463
 O         -2.5179191077       -0.7929057474       -0.9457502415
 C         -3.0257889147       -1.7889109347       -1.8054488434
 C         -1.8390010217       -2.5406194307       -2.4021854148
 C         -0.9555823172       -3.1597336617       -1.3212813254
 C          0.2289191434       -3.9091086158       -1.9158463572
 C         -0.4521344591        1.7289053760        0.6622377958
 C         -0.9177165486        2.9445413537        0.1581098137
 C         -0.0392947745        3.9871728357       -0.1427499984
 C          1.3133677983        3.8247955299        0.0513691703
 C          1.8077349644        2.6050500180        0.5198663181
 C          0.9534808843        1.5405957124        0.8054984623
 H         -1.1698116807        0.7424172662       -2.8958655064
 H         -0.7153960514        1.1140396501       -4.5658034192
 H         -1.0460946182        2.4186209222       -3.4218031402
 H          0.9148677138        1.7073421292       -2.0546477860
 H          1.3931884370        2.2087132963       -3.6794618108
 H          1.7061526817       -0.0965763263       -4.3769986055
 H          0.8630889970       -0.6920746792       -2.9348939938
 H          3.5028177603        0.8275319699       -2.8003542281
 H          3.3522313402       -0.9529530615       -2.7813817876
 H          5.1888200713       -0.3292452094       -1.4013111684
 H          6.6753448632       -0.5632286743        0.5316608518
 H          5.7735784680       -0.4575149618        2.8252367306
 H          3.3573016377       -0.0723846269        3.1784513138
 H          2.1116283386       -2.1849093004        2.1037132470
 H          0.5638791244       -3.9587969319        2.8161096809
 H         -1.8778181891       -3.5634643207        2.7565116808
 H         -2.7551914348       -1.4221370364        1.9321318072
 H         -3.1053376546        2.2923633278        2.2286754079
 H         -5.5429656631        2.4165367931        1.8447391775
 H         -6.5909922634        0.9432947172        0.1620663610
 H         -5.2283980842       -0.5913779854       -1.1620767702
 H         -3.6672169719       -2.4801230069       -1.2401482972
 H         -3.6218474668       -1.3358660551       -2.6111460549
 H         -2.2215496084       -3.3162210339       -3.0691659630
 H         -1.2472821027       -1.8418890721       -2.9963044241
 H         -0.5930177632       -2.3662296178       -0.6672168319
 H         -1.5528938144       -3.8437532050       -0.7138516179
 H          0.8401974124       -4.3344909931       -1.1237909391
 H         -0.1094139788       -4.7161454559       -2.5631619279
 H          0.8509824318       -3.2370925720       -2.5030879337
 H         -1.9756762046        3.0782623084       -0.0092298093
 H         -0.4306391931        4.9180780383       -0.5260277840
 H          2.0003883560        4.6291203052       -0.1669432953
 H          2.8717186355        2.4823129102        0.6597537797
