  54
 
 N          5.9293717437       -1.8706786928       -0.8702368726
 C          4.9488935536       -1.3124359317       -0.6161322867
 C          3.7576545419       -0.6828541253       -0.2907608082
 C          2.5358805696       -1.3021925373       -0.5477435598
 C          1.3364522395       -0.6707819463       -0.3022946349
 N          0.1266090311       -1.2533139129       -0.6643584689
 C         -0.3239804879       -2.4922905890       -0.2507907877
 C          0.3442420157       -3.4844390247        0.4553511765
 C         -0.3647877496       -4.6190900565        0.8013810400
 C         -1.7080180788       -4.7664242649        0.4623612040
 C         -2.3851905395       -3.7719793820       -0.2213749946
 C         -1.6948870371       -2.6257921467       -0.5807307956
 C         -2.0751276958       -1.4129525713       -1.2541755270
 C         -3.2581828186       -0.9585087872       -1.8136098305
 C         -3.2631395970        0.2770359269       -2.4379399079
 C         -2.0991938701        1.0329793055       -2.5449767426
 C         -0.9074178901        0.5975356735       -1.9961138572
 C         -0.9156848716       -0.6056009929       -1.3042414095
 C          1.3380932949        0.6661847720        0.3040039212
 N          0.1295342302        1.2524272622        0.6644546858
 C         -0.3167414476        2.4927235591        0.2501213164
 C          0.3554814396        3.4828008314       -0.4551275463
 C         -0.3496431432        4.6195316927       -0.8023101024
 C         -1.6929192445        4.7709318212       -0.4652587271
 C         -2.3740547958        3.7786011071        0.2176018585
 C         -1.6877139216        2.6303752006        0.5780607128
 C         -2.0725860938        1.4187375134        1.2510262476
 C         -3.2578486866        0.9678900229        1.8087091283
 C         -3.2674782771       -0.2676159735        2.4330476764
 C         -2.1059838570       -1.0270805719        2.5418145275
 C         -0.9120788595       -0.5952598665        1.9947219285
 C         -0.9156632075        0.6078912371        1.3028340472
 C          2.5391171099        1.2938974103        0.5510781336
 C          3.7593375514        0.6708483030        0.2956314656
 C          4.9520799290        1.2968356918        0.6224159273
 N          5.9339436612        1.8521278970        0.8776353602
 H          2.5386954005       -2.2753809978       -1.0181287518
 H          1.3809410963       -3.3766326467        0.7349537902
 H          0.1332546829       -5.4060313786        1.3468254301
 H         -2.2272956695       -5.6690535910        0.7465251072
 H         -3.4307136662       -3.8799319265       -0.4654437869
 H         -4.1531702343       -1.5594051944       -1.7666811719
 H         -4.1774186859        0.6530145251       -2.8710062851
 H         -2.1226569860        1.9750522364       -3.0710076238
 H         -0.0005300412        1.1707640136       -2.1155643945
 H          1.3922603001        3.3718626429       -0.7332024635
 H          0.1515454578        5.4049150599       -1.3471175046
 H         -2.2090730395        5.6750813593       -0.7502753195
 H         -3.4195978317        3.8897114252        0.4601594568
 H         -4.1509358800        1.5714990056        1.7604265481
 H         -4.1835335625       -0.6408218300        2.8647549889
 H         -2.1330914832       -1.9690765891        3.0678086578
 H         -0.0071207248       -1.1712527392        2.1154992589
 H          2.5442946316        2.2670623287        1.0214946486
