  65
 
 C         -6.7982032519        0.6002961165        1.9752630977
 C         -5.4742665566        0.2115730466        1.3164998547
 C         -4.4421884470       -0.0452710320        2.4347408938
 C         -5.5967471769       -1.0351968381        0.4581959348
 C         -6.6767951435       -1.9039614375        0.4849921779
 C         -6.7221013247       -3.0099954499       -0.3479699929
 C         -5.6976252789       -3.2476015422       -1.2480461867
 C         -4.6123540360       -2.3928197051       -1.2948945943
 C         -4.5445631793       -1.3120561508       -0.4225596055
 N         -3.4734178895       -0.3966295673       -0.4741429705
 C         -2.1486736336       -0.7589544112       -0.3895113922
 C         -1.7655157102       -2.1067204277       -0.2676261158
 C         -0.4399491245       -2.4640332512       -0.1623773050
 C          0.5775888047       -1.5091639171       -0.1877873299
 N          1.8694920920       -1.8199921361       -0.1105456024
 C          2.8106747985       -0.8938967508       -0.0494785235
 C          4.1971881092       -1.2443624502       -0.0136425682
 C          4.5513184502       -2.5964668946       -0.0640963931
 C          5.8783999399       -2.9810646303       -0.0142212795
 C          6.2257021208       -4.3452592567       -0.0639816346
 N          6.5152506117       -5.4567426371       -0.1040786786
 C          6.8846614422       -1.9974791762        0.0882697809
 C          6.5441442170       -0.6732288352        0.1361547914
 C          5.2029035623       -0.2437636814        0.0864907634
 C          4.8224191953        1.1385536865        0.1310760402
 C          5.7556430963        2.1882582112        0.2452992870
 C          5.3718519379        3.5010974419        0.2743938103
 C          4.0039078206        3.8371411412        0.1897162830
 C          3.6059846565        5.1883000008        0.2111302760
 N          3.2881282133        6.2925486457        0.2284791686
 C          3.0595736287        2.8335317857        0.0852062804
 C          3.4460634816        1.4891793920        0.0538771125
 C          2.4332490201        0.4845373173       -0.0451713081
 N          1.1599285434        0.8084227281       -0.1945821676
 C          0.1975646493       -0.1162590609       -0.2583784078
 C         -1.1457433622        0.2199100804       -0.3195325501
 C         -3.9105672479        0.9417307864       -0.4834563034
 C         -3.4036793646        1.8621247100       -1.3954135501
 C         -3.8810528948        3.1594916659       -1.4012659848
 C         -4.8766997981        3.5292938145       -0.5138991478
 C         -5.4108457315        2.5998966333        0.3649096918
 C         -4.9450476879        1.2950813882        0.3926871949
 H         -7.5646698599        0.7936850633        1.2284023446
 H         -6.6641839253        1.4886546397        2.5867175313
 H         -7.1351544337       -0.1957641108        2.6339135811
 H         -3.4721550307       -0.3280843887        2.0347454699
 H         -4.3154844835        0.8544400748        3.0329431744
 H         -4.7924017785       -0.8475707626        3.0805048601
 H         -7.4995355669       -1.7265437627        1.1574421540
 H         -7.5705517421       -3.6761422109       -0.3060716494
 H         -5.7469570226       -4.0880113617       -1.9237002381
 H         -3.8299647934       -2.5436903370       -2.0232782455
 H         -2.5131623834       -2.8802464651       -0.2241718204
 H         -0.1594904486       -3.5022801707       -0.0757716733
 H          3.7655016353       -3.3335702250       -0.1384330992
 H          7.9196533825       -2.3027933198        0.1269773577
 H          7.3365710730        0.0531170301        0.2116853485
 H          6.8075132089        1.9642098606        0.3130933603
 H          6.1049451324        4.2891235569        0.3606563670
 H          2.0074071041        3.0690931678        0.0242831003
 H         -1.3963361383        1.2651846601       -0.2358846488
 H         -2.6582200558        1.5511450816       -2.1118190466
 H         -3.4829356657        3.8737572062       -2.1058861269
 H         -5.2524887079        4.5412671290       -0.5146304824
 H         -6.1984659389        2.9099425068        1.0314017482
