73

N     -0.004581   -4.105339   -0.000132
C     -0.003385   -2.945177   -0.000039
C     -0.001876   -1.505009    0.000034
C      1.201389   -0.776083    0.071940
N      2.464426   -1.427531    0.118334
C      3.392821   -1.278351    1.142938
C      3.327015   -0.573029    2.361241
C      4.425292   -0.629754    3.223606
C      5.552361   -1.373216    2.894753
C      5.605696   -2.083760    1.692196
C      4.510307   -2.042423    0.802545
C      4.258764   -2.637236   -0.470820
C      5.017726   -3.479881   -1.311730
C      4.504574   -3.870186   -2.551544
C      3.255995   -3.424741   -2.967365
C      2.483728   -2.591185   -2.153606
C      2.991643   -2.225867   -0.890796
C      1.204934    0.631081    0.090979
C      0.001154    1.334844   -0.000059
N      0.002803    2.762390   -0.000190
C     -0.873634    3.569454    0.728660
C     -1.888107    3.255767    1.658672
C     -2.604640    4.297686    2.254884
C     -2.314196    5.621963    1.957842
C     -1.285410    5.933618    1.066366
C     -0.545379    4.898949    0.451937
C      0.556489    4.897553   -0.452267
C      1.299252    5.930319   -1.066605
C      2.327228    5.616025   -1.958097
C      2.614163    4.291012   -2.255277
C      1.894874    3.250944   -1.659157
C      0.881249    3.567232   -0.729094
C     -1.204159    0.633686   -0.090968
C     -1.203604   -0.773500   -0.071840
N     -2.467992   -1.422355   -0.118069
C     -2.996544   -2.219881    0.891003
C     -2.489255   -2.586073    2.153816
C     -3.262802   -3.418595    2.967411
C     -4.512004   -3.862151    2.551440
C     -5.024505   -3.470926    1.311654
C     -4.264255   -2.629294    0.470908
C     -4.514837   -2.033911   -0.802375
C     -5.610253   -2.073503   -1.692080
C     -5.555847   -1.362825   -2.894501
C     -4.427683   -0.620951   -3.223180
C     -3.329338   -0.566003   -2.360770
C     -3.396195   -1.271448   -1.142601
H      2.447649   -0.001523    2.642957
H      4.394058   -0.089372    4.167262
H      6.397231   -1.408776    3.578157
H      6.488593   -2.667183    1.446390
H      6.001522   -3.820659   -1.001723
H      5.090218   -4.521244   -3.195771
H      2.871585   -3.730702   -3.937950
H      1.514836   -2.248085   -2.502887
H      2.149894    1.166236    0.183014
H     -2.116452    2.231065    1.934854
H     -3.394318    4.065980    2.966421
H     -2.878841    6.421646    2.430558
H     -1.050824    6.973114    0.854419
H      1.067422    6.970418   -0.854569
H      2.893996    6.414264   -2.430714
H      3.403220    4.057257   -2.966830
H      2.120520    2.225660   -1.935408
H     -2.147965    1.170863   -0.183005
H     -1.519877   -2.244427    2.503190
H     -2.878932   -3.725258    3.937988
H     -5.098665   -4.512428    3.195516
H     -6.008789   -3.810239    1.001590
H     -6.493993   -2.655695   -1.446400
H     -6.400754   -1.397045   -3.577937
H     -4.395615   -0.080437   -4.166732
H     -2.449122    0.004233   -2.642386
