30

O      1.644060    3.283698    0.000000
C      1.984507    2.104643    0.000000
N      3.319472    1.750166    0.000000
C      3.736847    0.433817    0.000000
C      5.075622   -0.033144    0.000002
C      5.126499   -1.411540   -0.000000
S      3.562875   -2.114611    0.000000
C      2.812490   -0.587702   -0.000003
C      1.371784   -0.341889   -0.000001
C      0.399963   -1.347821    0.000002
C     -0.961549   -1.008258    0.000001
C     -1.984507   -2.104642    0.000001
O     -1.644060   -3.283697    0.000000
N     -3.319471   -1.750165    0.000001
C     -3.736846   -0.433816   -0.000000
C     -5.075621    0.033143   -0.000000
C     -5.126498    1.411540    0.000002
S     -3.562875    2.114611    0.000000
C     -2.812490    0.587703   -0.000001
C     -1.371784    0.341888   -0.000001
C     -0.399963    1.347820    0.000001
C      0.961550    1.008258    0.000002
H      3.998334    2.499976    0.000000
H      5.958933    0.592790   -0.000002
H      6.004255   -2.043551   -0.000001
H      0.681158   -2.398957    0.000000
H     -3.998334   -2.499975   -0.000000
H     -5.958933   -0.592790   -0.000001
H     -6.004255    2.043550   -0.000002
H     -0.681161    2.398956    0.000000
