  111
 
 C          7.8871331284       -1.8187023548       -1.7013956595
 C          7.1179858273       -0.7818231034       -2.5326103648
 C          6.8465398270       -1.3384319625       -3.9376398772
 C          8.0009304324        0.4608573125       -2.6759842467
 C          5.7925909238       -0.4819205743       -1.8496691656
 C          4.8853690690       -1.5300608719       -1.6443293455
 C          3.6658006962       -1.3536380457       -1.0244340966
 C          3.3378146779       -0.0827595604       -0.5776691419
 C          4.2200943320        0.9963135388       -0.8002308439
 C          5.4392746431        0.7922534623       -1.4291994909
 C          3.5695179313        2.1667294255       -0.2741716020
 C          3.9384824701        3.5014530118       -0.1962724477
 C          3.0847977441        4.4183939874        0.3999720494
 C          3.4181078750        5.8984480128        0.5082925856
 C          3.4688517759        6.2969926661        1.9901849265
 C          2.3326577921        6.7108614953       -0.2125684009
 C          4.7687215292        6.2457156772       -0.1237635430
 C          1.8726813169        3.9575213930        0.9308802982
 C          1.4828799883        2.6357204561        0.8679893512
 C          2.3286356361        1.7341938880        0.2406884191
 N          2.1973966601        0.3743191668        0.0492512919
 C          1.1045538812       -0.4103922856        0.4452599731
 C          1.3200650181       -1.5536371090        1.2012282624
 C          0.2383641648       -2.3424400388        1.6110371856
 C          0.3785530999       -3.5126268891        2.4794893088
 O         -0.5606054970       -3.8369195240        3.2476631851
 C          1.6052454697       -4.2850985253        2.4331919655
 C          1.9531611091       -5.1101663206        3.5240891017
 C          3.1111129618       -5.8481703327        3.4640779502
 N          3.9166963994       -5.8440387967        2.4115426617
 C          3.5862392188       -5.1156644462        1.3564734853
 C          2.4549140363       -4.3336974115        1.3105477749
 C         -1.0598339713       -1.9291528657        1.2797794137
 C         -1.2663678736       -0.7942984527        0.5148386635
 N         -2.5718981653       -0.4279140294        0.1594790054
 C         -3.1441645033        0.8145727979        0.3273970425
 C         -2.6288518513        1.9684712138        0.8977779492
 C         -3.4418523528        3.0810710849        0.9622218283
 C         -4.7598453823        3.0875421606        0.4866557833
 C         -5.5759446573        4.3655455533        0.6034781869
 C         -5.6978912458        4.7496918469        2.0851741370
 C         -4.8673184892        5.4876978555       -0.1687621516
 C         -6.9891003022        4.2162894853        0.0334718776
 C         -5.2734724905        1.9197022319       -0.0602438953
 C         -4.4769122842        0.7875174159       -0.1378228904
 C         -4.7129088601       -0.5505329396       -0.6123257553
 C         -5.8115113645       -1.1714253776       -1.1869348053
 C         -5.7288609551       -2.5046856150       -1.5639120624
 C         -6.8949154942       -3.2512696229       -2.1929144325
 C         -6.4855698020       -3.7378268721       -3.5906156909
 C         -7.2571190994       -4.4530370871       -1.3086082953
 C         -8.1433982579       -2.3771597253       -2.3407875043
 C         -4.5196640994       -3.1843701717       -1.3630234112
 C         -3.4110554086       -2.5911739135       -0.7950229780
 C         -3.5137766790       -1.2647962860       -0.4016813599
 C         -0.1856136937       -0.0269044860        0.0820434195
 H          8.8484653069       -2.0306929003       -2.1645175596
 H          7.3368318485       -2.7517078436       -1.6199589680
 H          8.0637820491       -1.4390049336       -0.6971859387
 H          6.2804979348       -0.6178417426       -4.5244491712
 H          6.2793702258       -2.2640123626       -3.8963006061
 H          7.7860115066       -1.5381482543       -4.4485859829
 H          8.9359921423        0.1863586627       -3.1600356004
 H          7.5164539019        1.2174518204       -3.2889368960
 H          8.2390510882        0.8858979529       -1.7036518288
 H          5.1377600267       -2.5224602739       -1.9846653219
 H          2.9852473543       -2.1818347253       -0.9053043202
 H          6.0900534387        1.6369439888       -1.5812144828
 H          4.8909728612        3.7986200691       -0.6018740465
 H          4.2197045879        5.7074420989        2.5121456202
 H          2.5115911983        6.1374335895        2.4783561108
 H          3.7280296894        7.3492800050        2.0858565062
 H          2.2773538341        6.4182491240       -1.2591354895
 H          1.3554781587        6.5557435880        0.2359860014
 H          2.5648333002        7.7725577343       -0.1626935428
 H          4.9504002140        7.3140372776       -0.0251453985
 H          4.7798049186        6.0001845474       -1.1832351862
 H          5.5807863250        5.7209696182        0.3741284828
 H          1.2082272408        4.6554647591        1.4165949296
 H          0.5527895257        2.3146564077        1.3100006383
 H          2.3237001150       -1.7889824369        1.5201923516
 H          1.3217848245       -5.1424472803        4.3966179605
 H          3.4160459840       -6.4736060616        4.2918997477
 H          4.2549546188       -5.1755011307        0.5085206024
 H          2.2062403351       -3.8122126026        0.4008632257
 H         -1.8960206034       -2.5048136433        1.6445738737
 H         -1.6274719865        1.9956469467        1.2974791897
 H         -3.0350426753        3.9765153937        1.4063115568
 H         -6.2991674456        5.6503188327        2.1899337976
 H         -4.7243593990        4.9377210179        2.5290297653
 H         -6.1769739831        3.9476166163        2.6427535466
 H         -3.8786805487        5.6864605793        0.2352267249
 H         -4.7584922533        5.2124472979       -1.2158249543
 H         -5.4484480487        6.4056416064       -0.1116375995
 H         -7.5218943985        5.1595735551        0.1354723341
 H         -7.5500448633        3.4555715845        0.5713408120
 H         -6.9600980894        3.9601472860       -1.0231451192
 H         -6.2858025359        1.8654212261       -0.4239476908
 H         -6.7122874635       -0.5989454630       -1.3318485304
 H         -7.3166107347       -4.2561267378       -4.0642495506
 H         -5.6423526674       -4.4209789707       -3.5427719369
 H         -6.2043921230       -2.8924980887       -4.2154596238
 H         -7.5273965593       -4.1163922220       -0.3099480502
 H         -8.1034817013       -4.9884753154       -1.7336248325
 H         -6.4261711238       -5.1469397032       -1.2199403602
 H         -7.9507356660       -1.5244368917       -2.9878448487
 H         -8.9439503465       -2.9627548319       -2.7882478786
 H         -8.4890891658       -2.0217759400       -1.3728315796
 H         -4.4379913096       -4.2175472207       -1.6631198039
 H         -2.4938156909       -3.1452562911       -0.6670908014
 H         -0.3418886692        0.8365698701       -0.5452399954
