  92
 
 N         12.2017400928       -2.4855759871        1.0380537104
 C         11.1540345750       -2.2593644825        0.6308895749
 C          9.8571270923       -1.9784537904        0.1414884878
 C          8.8211839179       -1.7402481848        1.0185206045
 C          7.5328135474       -1.4649602284        0.5316650400
 N          6.5331479560       -1.2438705918        1.4240856504
 C          5.3629171365       -0.9974265731        0.9096308762
 C          5.1316337874       -0.9543626695       -0.5298192711
 N          6.0784641286       -1.1668666228       -1.3979710857
 C          7.3051219888       -1.4294831358       -0.8773443289
 C          8.3720454157       -1.6741408197       -1.7576373853
 C          9.6295177993       -1.9463420287       -1.2638208312
 C         10.7046922040       -2.1967999775       -2.1480850161
 N         11.5704520261       -2.3993150202       -2.8719271339
 C          3.7300981434       -0.6495826515       -0.7495952586
 C          2.9294393910       -0.4764857651       -1.8535703474
 C          1.5752076477       -0.1707050303       -1.6480782513
 C          1.0204692497       -0.0291359882       -0.3899733975
 N         -0.3620171319        0.2604264953       -0.2552341887
 C         -1.2340182664       -0.8241945665       -0.2215884392
 C         -0.7402930000       -2.1301265402       -0.2860601673
 C         -1.5918144523       -3.2135557723       -0.2644876580
 C         -2.9713200849       -3.0392568496       -0.1789556967
 C         -3.8884930183       -4.1867416156       -0.1834056814
 C         -5.0949951806       -4.1268372033       -0.8793556008
 C         -5.9541900074       -5.2098975282       -0.8954133319
 C         -5.6262162870       -6.3710553270       -0.2147482982
 C         -4.4313794177       -6.4413893462        0.4825959271
 C         -3.5695488780       -5.3603406134        0.4975991393
 C         -3.4552479624       -1.7375926408       -0.1030644114
 C         -2.6128495253       -0.6390660948       -0.1218667350
 C         -3.2187495078        0.7394008432       -0.0462928425
 C         -4.2200489485        0.9305401872       -1.1721586462
 C         -3.9867615424        0.9323147986       -2.5297293214
 C         -5.0634416586        1.1165059189       -3.3877655233
 C         -6.3455450507        1.2931141894       -2.8894761924
 C         -6.5848206102        1.2914696272       -1.5240380901
 C         -5.5143303012        1.1098549690       -0.6636170626
 C         -5.4503590808        1.0675123387        0.7903159876
 C         -6.4403556286        1.1994688337        1.7503583389
 C         -6.0823364260        1.1240868403        3.0874588262
 C         -4.7624777715        0.9194092856        3.4601875856
 C         -3.7664835478        0.7847841506        2.5015088522
 C         -4.1170496240        0.8599833451        1.1716992911
 C         -2.1829934460        1.8373319944       -0.0607433283
 C         -2.6503782982        3.1460552492        0.0271531879
 C         -1.7965683156        4.2234791342        0.0160338277
 C         -0.4287684630        3.9915918953       -0.0849767863
 C          0.0535251148        2.6750945521       -0.1746486915
 S          1.8150950407        2.6500803828       -0.2939335728
 C          1.8918168321        4.3934566706       -0.2209027099
 C          3.0474893789        5.1556764149       -0.2649669037
 C          2.9272386982        6.5304779274       -0.1986345801
 C          1.6747620610        7.1291311676       -0.0919140787
 C          0.5264948743        6.3649529372       -0.0480817430
 C          0.6219334252        4.9770480277       -0.1129886568
 C         -0.8132594914        1.5704035351       -0.1653795394
 C          1.8155755265       -0.2234459288        0.7731743347
 C          1.4183023532       -0.1385442751        2.1256228393
 C          2.3344484463       -0.3403344807        3.1316666471
 C          3.6871969549       -0.6335386478        2.8823428530
 C          4.1021576657       -0.7252343491        1.5750833092
 C          3.1594577146       -0.5231638468        0.5394049237
 H          8.9790346246       -1.7623286255        2.0861198274
 H          8.1844715557       -1.6460481358       -2.8202825824
 H          3.3212901129       -0.5667012576       -2.8542403645
 H          0.9355337399       -0.0288965667       -2.5072191273
 H          0.3225028003       -2.3008083586       -0.3607085461
 H         -1.1783158341       -4.2080586712       -0.3399549568
 H         -5.3494683111       -3.2314935759       -1.4286155642
 H         -6.8830019946       -5.1500526526       -1.4448387026
 H         -6.2981053331       -7.2168924928       -0.2280765910
 H         -4.1715074881       -7.3429332231        1.0191467140
 H         -2.6476598590       -5.4177161054        1.0581625816
 H         -4.5183559425       -1.5703519147       -0.0110718252
 H         -2.9887192045        0.7944048753       -2.9203731425
 H         -4.9000216041        1.1219898298       -4.4556580611
 H         -7.1684121188        1.4338404244       -3.5755472441
 H         -7.5852251634        1.4293093312       -1.1412130744
 H         -7.4697153546        1.3590819961        1.4651570575
 H         -6.8412746115        1.2258135708        3.8498237531
 H         -4.5058418552        0.8646506223        4.5081508320
 H         -2.7392671231        0.6253410641        2.7952989780
 H         -3.7153307079        3.3063176514        0.1034914777
 H         -2.1744875785        5.2306482355        0.0830803506
 H          4.0129798993        4.6799758965       -0.3490595264
 H          3.8143206968        7.1452122918       -0.2313095679
 H          1.6038490035        8.2055090522       -0.0424548117
 H         -0.4415869664        6.8348195667        0.0347331143
 H          0.3904264305        0.0886180105        2.3644499158
 H          2.0079981691       -0.2696045125        4.1585607665
 H          4.3754027566       -0.7798658641        3.7001572895
