  58
 
 F          5.2117967606        1.9765415529       -2.4731270419
 B          5.0040445380        1.7245137156       -1.1111388548
 F          5.1951662056        2.9466746107       -0.4347153219
 O          5.9748469170        0.7520726545       -0.6462711149
 C          5.6431860042       -0.3088049873        0.0949595264
 C          6.7669356319       -1.1000981117        0.5778901320
 C          6.6148220206       -2.3906709529        1.1037737680
 C          7.7117408776       -3.1029197190        1.5441498031
 C          8.9845089683       -2.5549264982        1.4738286283
 C          9.1521814076       -1.2814964727        0.9486976372
 C          8.0612255961       -0.5644349668        0.5044966386
 C          4.3271490070       -0.6136655232        0.3817972622
 C          3.2534048835        0.1536384187       -0.1123215021
 C          1.9189682959       -0.1522738181        0.1208453661
 C          0.9030389902        0.6319582420       -0.4379653478
 C         -0.4974972658        0.4010502424       -0.2750839593
 C         -1.4185794917        1.2585303163       -0.9214231485
 C         -2.7705992553        1.0779792513       -0.8029100211
 C         -3.2728848519        0.0172946189       -0.0364172959
 N         -4.6665678084       -0.1832776374        0.0775725783
 C         -5.4658376532        0.7804633282        0.6650019208
 C         -4.9407370609        1.9517485126        1.2202342294
 C         -5.7756404961        2.8900755697        1.7906152091
 C         -7.1503861641        2.6835109198        1.8347045733
 C         -7.6890115255        1.5182616965        1.3233841274
 C         -6.8585038075        0.5651188808        0.7486697151
 O         -7.4362884682       -0.5754942122        0.2922011399
 C         -6.6421090341       -1.5210246592       -0.2720362586
 C         -7.2544487709       -2.6781878870       -0.7354247434
 C         -6.4994740265       -3.6596034226       -1.3486073669
 C         -5.1312611208       -3.4770695183       -1.5190609923
 C         -4.5113141867       -2.3332839316       -1.0604427649
 C         -5.2482927293       -1.3414205122       -0.4054208506
 C         -2.3806644819       -0.8443470449        0.6118041087
 C         -1.0265338847       -0.6535357073        0.5021147084
 N          1.2624939156        1.7242203908       -1.2143713770
 C          2.5070470861        1.9713791576       -1.3891829768
 N          3.5448310283        1.2654985520       -0.8954617100
 H          5.6388524008       -2.8468832434        1.1479504154
 H          7.5766051021       -4.0979525575        1.9425999037
 H          9.8386877793       -3.1169115065        1.8207983461
 H         10.1393505091       -0.8468318892        0.8863259460
 H          8.1806520350        0.4278917017        0.0959488133
 H          4.0899462468       -1.4569565979        1.0058155972
 H          1.6971996639       -1.0066629351        0.7387313310
 H         -1.0160500785        2.0565571586       -1.5240403961
 H         -3.4573112497        1.7304700088       -1.3217137258
 H         -3.8753532782        2.1131305828        1.2039122142
 H         -5.3513245914        3.7884740297        2.2100327511
 H         -7.7968966196        3.4235866221        2.2781651745
 H         -8.7476268694        1.3180198424        1.3612447517
 H         -8.3201353084       -2.7789799665       -0.6078277232
 H         -6.9763328281       -4.5582080093       -1.7056296621
 H         -4.5445288824       -4.2314212939       -2.0188278892
 H         -3.4537911130       -2.1920605828       -1.2120730895
 H         -2.7688189192       -1.6463100351        1.2226442020
 H         -0.3636311122       -1.3198081664        1.0293909080
 H          2.7819751033        2.8263896730       -1.9932638609
