  51
 
 C         -3.9100566934        1.0048959194       -3.1828715560
 C         -2.6098773036        0.6377729450       -3.4969945094
 C         -1.7174699499        0.2600427948       -2.5028452334
 C         -2.1541670731        0.2575645719       -1.1962776412
 C         -3.4678884731        0.6276676974       -0.8725570904
 C         -4.3525012149        1.0040764173       -1.8698208212
 C         -3.6337601813        0.5259965567        0.5684362053
 C         -4.7264593625        0.7743867234        1.3828039670
 C         -4.5906158531        0.5889697324        2.7492210737
 C         -3.3882797982        0.1635177627        3.2948903866
 C         -2.2894269233       -0.0878361171        2.4848583576
 C         -2.4202273115        0.0957794511        1.1254753976
 C         -1.3841082488       -0.1132414408        0.0502738320
 C         -0.8314048450       -1.5162446515        0.0164169938
 C         -1.5212789170       -2.6884535966       -0.0729840527
 C         -0.8111372708       -3.8967553446       -0.0618155866
 C          0.5819384808       -3.8933703031        0.0825395662
 C          1.2928749188       -2.7261380815        0.1753904417
 C          0.6054815283       -1.4847042774        0.0978563465
 C          1.0392101127       -0.1625119319        0.1265580130
 C         -0.1311009389        0.7062018459        0.2317674631
 C         -0.0541032289        2.0216509993        0.5387405192
 C          1.2198492274        2.6312794995        0.7227449862
 C          2.3511952771        1.8488219918        0.5265455471
 N          3.6596116110        2.2660523667        0.5692703650
 C          4.4786031731        1.2432098344        0.1965777973
 C          5.8570828904        1.2206282910        0.0725983458
 C          6.4447506493        0.0544735471       -0.3798479669
 C          5.6598606928       -1.0543162699       -0.7281987026
 C          4.2919287833       -1.0456363850       -0.6038622306
 C          3.6596929826        0.1012254221       -0.0959607080
 C          2.3239752987        0.4831322191        0.1625816206
 H         -4.5865836179        1.2948034193       -3.9738918676
 H         -2.2882911116        0.6451253346       -4.5281994383
 H         -0.7048361853       -0.0267097022       -2.7467691755
 H         -5.3660413876        1.2903850527       -1.6304520065
 H         -5.6649754475        1.1054350710        0.9631471500
 H         -5.4323305205        0.7778357327        3.3998411774
 H         -3.3068375070        0.0258646360        4.3632060263
 H         -1.3525030611       -0.4200944752        2.9079521774
 H         -2.5996156126       -2.6902451637       -0.1456069574
 H         -1.3417593291       -4.8329395061       -0.1379549725
 H          1.1015740368       -4.8398105537        0.1367329921
 H          2.3564795486       -2.7410577876        0.3456993572
 H         -0.9469670716        2.6190302095        0.6466381149
 H          1.2980325286        3.6799705535        0.9600598423
 H          3.9621211121        3.1901139199        0.8290750811
 H          6.4492385136        2.0924597983        0.3095560174
 H          7.5168531542        0.0009625588       -0.4903977538
 H          6.1520438159       -1.9353289953       -1.1141990978
 H          3.7112715740       -1.8966277896       -0.9194923338
