  63
 
 C         -6.9470110582        0.2080403369        0.6556973626
 C         -5.7983387878       -0.3939301262       -0.1771633735
 C         -6.3614226096       -1.3559132964       -1.2414458826
 C         -4.8862429224       -1.1703715600        0.7506706416
 C         -5.3940681809       -2.2411231146        1.4740158236
 C         -4.6121712029       -2.9712828695        2.3504442891
 C         -3.2825017886       -2.6237850153        2.5277877517
 C         -2.7507924961       -1.5664123575        1.8231264225
 C         -3.5344811939       -0.8361865957        0.9196706814
 N         -2.9689442596        0.2095438001        0.2159960061
 C         -1.5944137214        0.5219644971        0.4267784210
 C         -1.2485076220        1.5819268930        1.2569962468
 C          0.0831317564        1.8935637237        1.4668579766
 C          1.0988749677        1.1524043405        0.8618968412
 N          2.3891250631        1.4286923226        1.0442849567
 C          3.3472728805        0.7082852082        0.4696213841
 C          4.7263781597        1.0230138030        0.6759616514
 C          5.0621642542        2.1228887313        1.4837562907
 C          6.3722565123        2.4614740187        1.7015562832
 C          7.3862824587        1.7050410321        1.1117615961
 C          7.0768607395        0.6251642169        0.3198286210
 C          5.7471958833        0.2470762425        0.0774245499
 C          5.3875768872       -0.8836656878       -0.7468064440
 C          6.3376352701       -1.7175826131       -1.3564965840
 C          5.9645980835       -2.7843621435       -2.1386379130
 C          4.6140326025       -3.0668750364       -2.3489191972
 C          3.6587643092       -2.2756696545       -1.7657574760
 C          4.0209415892       -1.1824053804       -0.9603607912
 C          2.9923546771       -0.3899940317       -0.3610655320
 N          1.7089904497       -0.6723910538       -0.5611562950
 C          0.7375503398        0.0443358947        0.0057556031
 C         -0.6107681000       -0.2383337594       -0.1969768224
 C         -3.6999383105        0.9742410653       -0.6722899053
 C         -3.0665360997        2.0031556901       -1.3819683197
 C         -3.7717419821        2.7953499925       -2.2607449576
 C         -5.1257515230        2.5728238524       -2.4546739559
 C         -5.7500270027        1.5447630326       -1.7720978494
 C         -5.0650111161        0.7293731072       -0.8812475543
 H         -7.5049204330       -0.5729632752        1.1638829294
 H         -6.5458581334        0.8878175270        1.4053751604
 H         -7.6340786397        0.7614768671        0.0223584109
 H         -5.5474182183       -1.7792766633       -1.8272523515
 H         -7.0345293135       -0.8342710033       -1.9154292203
 H         -6.9089435372       -2.1697633831       -0.7753597165
 H         -6.4301984243       -2.5178794510        1.3554630919
 H         -5.0383178386       -3.7998058406        2.8952856102
 H         -2.6587859202       -3.1746974460        3.2158223162
 H         -1.7168868357       -1.2947910129        1.9677004776
 H         -2.0241341068        2.1614675897        1.7340928849
 H          0.3640055218        2.7147036652        2.1074667289
 H          4.2547063572        2.6894853798        1.9228829020
 H          6.6206132145        3.3087754530        2.3234688368
 H          8.4201006783        1.9705348316        1.2782207441
 H          7.8839517761        0.0630741029       -0.1221308080
 H          7.3892559232       -1.5273249095       -1.2132121377
 H          6.7206667686       -3.4077802952       -2.5931396414
 H          4.3256051778       -3.9051845551       -2.9657134472
 H          2.6060758891       -2.4706122966       -1.9055250823
 H         -0.8793959303       -1.0603812079       -0.8420791420
 H         -2.0111459037        2.1736826920       -1.2373475524
 H         -3.2640425091        3.5851899352       -2.7938877012
 H         -5.6893751983        3.1906594091       -3.1370308622
 H         -6.8022243212        1.3777831586       -1.9427349254
