  78
 
 N         -2.3808931620        6.9254147671       -0.7780364030
 C         -2.6576070666        5.8161699900       -0.6606660027
 C         -2.9954575508        4.4583238654       -0.5155616569
 C         -2.5481610654        3.5166897039       -1.4525851537
 C         -2.8721310247        2.1892260284       -1.3050627526
 C         -3.6591267076        1.7722900377       -0.2234786236
 N         -3.9677080887        0.4205060852       -0.0724184577
 C         -3.0238773213       -0.6294532681       -0.0330656588
 C         -1.6288000984       -0.5278889934        0.0401627827
 C         -0.8699622844       -1.7192508175       -0.1746165474
 C          0.4878895649       -1.7137161876       -0.1450369741
 C          1.2240376481       -0.5262543382        0.1107554212
 C          2.6596592536       -0.5073693136        0.1076656959
 C          3.3786925931        0.6810732368       -0.1406103562
 C          4.7503592516        0.7036688160       -0.1510884386
 C          5.4821128473       -0.4639106429        0.0914226676
 N          6.8759858397       -0.4429494290        0.0821924998
 C          7.6943654429       -1.3420808586       -0.5750202491
 C          7.3567194769       -2.4045581855       -1.4019563715
 C          8.3853991577       -3.1351152137       -1.9666844327
 C          9.7199281302       -2.8158901094       -1.7291443419
 C         10.0623114425       -1.7402342570       -0.9316779422
 C          9.0468591633       -0.9929184787       -0.3532931831
 C          9.0348691859        0.1745250081        0.4857410746
 C         10.0349841304        0.9535964750        1.0487807509
 C          9.6709897439        2.0185934325        1.8509636437
 C          8.3308100782        2.2961408119        2.1082669576
 C          7.3171878878        1.5334254996        1.5590726695
 C          7.6756219563        0.4815084659        0.7274000229
 C          4.7890998571       -1.6530630421        0.3429680365
 C          3.4173214156       -1.6728987056        0.3481208183
 C          0.4677869488        0.6399667867        0.3921736811
 C         -0.8931729465        0.6474747706        0.3683365090
 N         -3.6494299344       -1.8217284995        0.0235961177
 C         -4.9468294560       -1.5706541601        0.0857895152
 C         -6.0059686081       -2.5126951943        0.2417508811
 C         -5.7322242206       -3.8735556656        0.3958387166
 C         -6.7572001589       -4.7706412364        0.5960329017
 C         -8.0651244103       -4.3044093714        0.6536448149
 C         -8.3454120086       -2.9622514744        0.4944260708
 C         -7.3311039429       -2.0233916923        0.2711311567
 C         -7.5947791260       -0.6094861107        0.0463383602
 C         -8.8981335874       -0.1216863255       -0.0576765583
 C         -9.1697532080        1.2041658558       -0.3264450894
 C         -8.1233263665        2.1001480110       -0.5316038637
 C         -6.8268601866        1.6682466919       -0.4285213537
 C         -6.5211097666        0.3260438916       -0.1144734646
 C         -5.2072982722       -0.1691782551        0.0012846478
 C         -4.1085180097        2.7133911659        0.7119761476
 C         -3.7784219667        4.0402693335        0.5701352793
 H         -1.9522266967        3.8441925051       -2.2913211172
 H         -2.5292990090        1.4568363371       -2.0204658942
 H         -1.4204079157       -2.6205687084       -0.3912066027
 H          1.0204660148       -2.6263689752       -0.3645414823
 H          2.8420679913        1.5870924043       -0.3754566484
 H          5.2767263205        1.6173015541       -0.3847535425
 H          6.3262285853       -2.6464371882       -1.6122082250
 H          8.1481023595       -3.9687599173       -2.6106830831
 H         10.4950005066       -3.4124752231       -2.1863282299
 H         11.0964627690       -1.4799909265       -0.7646547634
 H         11.0741749124        0.7258664878        0.8662369117
 H         10.4336936110        2.6396431065        2.2961716746
 H          8.0771107147        3.1225869469        2.7552297072
 H          6.2828969161        1.7434305956        1.7842706905
 H          5.3461227560       -2.5499510575        0.5705059729
 H          2.9120453146       -2.5949563175        0.5892315358
 H          0.9845545633        1.5410983665        0.6867737107
 H         -1.4160777947        1.5430501412        0.6621347362
 H         -4.7009406095       -4.1880277463        0.3607529137
 H         -6.5499234569       -5.8233552798        0.7153074491
 H         -8.8753586672       -4.9984351697        0.8241035778
 H         -9.3759749491       -2.6503537997        0.5520523646
 H         -9.7330093239       -0.7935324375        0.0596756433
 H        -10.1928819857        1.5411545197       -0.3965614705
 H         -8.3315064838        3.1308178098       -0.7769083252
 H         -6.0249219115        2.3623162869       -0.6171091739
 H         -4.7041262447        2.3822997272        1.5502016954
 H         -4.1115405835        4.7671496848        1.2959160476
