  94
 
 C         -3.1627023517        2.2116236199       -0.0043247423
 C         -3.7591817428        0.9906754622        0.1596434324
 C         -5.1549385037        0.7079154336        0.1085997686
 C         -5.5934345194       -0.6175071097        0.3110862571
 C         -6.9212821259       -0.9568030980        0.2670643575
 C         -7.8966107728        0.0179901312        0.0184601173
 N         -9.2465563094       -0.3219720393       -0.0322498058
 C         -9.6387870666       -1.5601629285       -0.5563094560
 C         -8.9829715459       -2.0984216376       -1.6643473029
 C         -9.3696868259       -3.3229635027       -2.1735675699
 C        -10.4157023674       -4.0251165378       -1.5956290668
 C        -11.0737295205       -3.4921628930       -0.4983500032
 C        -10.6905690820       -2.2713358964        0.0225781052
 C        -10.2168961079        0.5691264759        0.4418732994
 C         -9.9754614144        1.3375873136        1.5814654352
 C        -10.9351991827        2.2179584836        2.0421882934
 C        -12.1483429210        2.3421090231        1.3833909399
 C        -12.3950886975        1.5770040252        0.2543236005
 C        -11.4394989339        0.6984954816       -0.2183652237
 C         -7.4800457146        1.3409353712       -0.1809107413
 C         -6.1499429079        1.6750809735       -0.1385227233
 C         -1.7713616214        2.4821205086        0.0335909018
 C         -1.3099806815        3.8061725088       -0.1637140826
 C          0.0185337777        4.1191597880       -0.1598838930
 C          1.0133014491        3.1358930569        0.0586836763
 C          2.4108146853        3.4431333257        0.0509084047
 C          2.9289374349        4.5955443100       -0.5943532123
 C          4.2671815300        4.8477580251       -0.6497900752
 C          5.2217530065        3.9592519667       -0.0862992812
 C          6.5992020967        4.2262416722       -0.2049645512
 C          7.6708753836        3.3743453669        0.0211702754
 C          7.6916520397        1.9581190552       -0.0119990895
 C          8.7588821790        1.2481334587        0.5870974089
 C          8.7963463040       -0.1211607680        0.5988998854
 C          7.7816739098       -0.8697456280       -0.0190471346
 N          7.7895342697       -2.2594847918        0.0208908952
 C          6.5810293912       -2.9636226323        0.0890665187
 C          6.4244393831       -4.1675712665       -0.5994559068
 C          5.2310694811       -4.8595909225       -0.5266988702
 C          4.1759400874       -4.3633539434        0.2227855979
 C          4.3257698797       -3.1670196039        0.9068646597
 C          5.5172515274       -2.4710173337        0.8470013687
 C          9.0005747621       -2.9618351418       -0.0080704558
 C         10.0524143930       -2.5231115682       -0.8135217054
 C         11.2451425610       -3.2196530180       -0.8376011731
 C         11.4072349981       -4.3612010500       -0.0681822755
 C         10.3642009435       -4.8023531507        0.7312310041
 C          9.1693870757       -4.1101481654        0.7669460900
 C          6.7588727763       -0.1801245637       -0.6897912137
 C          6.7170239866        1.1872062058       -0.6913942281
 C          4.6958334432        2.8579660781        0.6441215998
 C          3.3584315295        2.6108578822        0.6992060650
 C          0.5500118718        1.8145447852        0.2710825385
 C         -0.7772480692        1.4990971485        0.2515978668
 H         -3.7912524517        3.0739550020       -0.1868728769
 H         -3.1297318464        0.1305937891        0.3453845374
 H         -4.8583486614       -1.3835084096        0.5155137797
 H         -7.2264294522       -1.9794443143        0.4365911571
 H         -8.1749360824       -1.5468000212       -2.1225081930
 H         -8.8557657495       -3.7276257530       -3.0332969726
 H        -10.7160026670       -4.9809790908       -1.9976439924
 H        -11.8866425096       -4.0350475763       -0.0386329935
 H        -11.1976068565       -1.8621237161        0.8842990173
 H         -9.0351079824        1.2330593330        2.1027597328
 H        -10.7372007707        2.8049316647        2.9272246362
 H        -12.8965998789        3.0296246616        1.7479612072
 H        -13.3359532292        1.6709431008       -0.2679991214
 H        -11.6295912216        0.1107152462       -1.1046200120
 H         -8.2210507205        2.1007480094       -0.3849755959
 H         -5.8664292256        2.7016368430       -0.3114959831
 H         -2.0412204050        4.5889893328       -0.3183299121
 H          0.3125495440        5.1499752373       -0.2924917752
 H          2.2496984203        5.2713236915       -1.0926253317
 H          4.6272565687        5.7224933318       -1.1751628611
 H          6.8523119371        5.2499056129       -0.4635839019
 H          8.6296292595        3.8482799788        0.2022473883
 H          9.5377828677        1.8068367539        1.0865985071
 H          9.5989174309       -0.6375539454        1.1056819483
 H          7.2408992197       -4.5497207735       -1.1945642677
 H          5.1213737016       -5.7886415700       -1.0666365867
 H          3.2435960339       -4.9051714173        0.2740199110
 H          3.5110860895       -2.7764609478        1.4989930734
 H          5.6362524625       -1.5455797769        1.3911244882
 H          9.9213146871       -1.6409639330       -1.4231212036
 H         12.0506542920       -2.8733461202       -1.4684428939
 H         12.3400194606       -4.9041118751       -0.0920429588
 H         10.4843151782       -5.6880283569        1.3377456152
 H          8.3607502822       -4.4483120147        1.3982629779
 H          6.0087028149       -0.7439500741       -1.2256277110
 H          5.9455968391        1.6951500417       -1.2491600212
 H          5.3795174171        2.2327547886        1.1986149105
 H          3.0073037620        1.7830948966        1.2975323521
 H          1.2697281179        1.0211781201        0.4094612944
 H         -1.0714260238        0.4704110136        0.3967121141
