  101
 
 N        -11.7381988919       -7.2669903740       -0.3522869049
 C        -10.7991115091       -6.6081496889       -0.2950636331
 C         -9.6457984796       -5.7991490077       -0.2243727357
 C         -8.6161817779       -6.1238110405        0.6624297279
 C         -7.4897896582       -5.3309813983        0.7234742676
 C         -7.3635334038       -4.2006133659       -0.0861889577
 C         -6.1574349107       -3.3641283139       -0.0167784613
 C         -4.8907508495       -3.9595439582        0.0772934119
 C         -3.7678637957       -3.1752336090        0.1107687848
 C         -3.8714359153       -1.7796911042        0.0709781562
 C         -5.1367343102       -1.1505292994        0.0110166060
 C         -6.2605417918       -1.9840004234       -0.0482076416
 C         -5.2319742618        0.3005501832        0.0276889320
 C         -6.4691763479        0.9507054703        0.0916709828
 C         -6.5877603267        2.3286703117        0.1415016910
 C         -7.9095724588        2.9651394866        0.2093060703
 C         -8.9212304005        2.4257776855        1.0063426224
 C        -10.1610010418        3.0248709366        1.0787898697
 C        -10.4151808240        4.1851250503        0.3434623631
 C        -11.6801967300        4.8053834400        0.4144160677
 N        -12.7087552999        5.3131013198        0.4721634487
 C         -9.4121340054        4.7323525105       -0.4603821040
 C         -8.1751325684        4.1262636927       -0.5193245083
 C         -5.4233601302        3.1069139722        0.1431450217
 C         -4.1925739996        2.5064566880        0.0878133112
 C         -4.0628492688        1.1112803120        0.0121284433
 C         -2.8106310364        0.4390503927       -0.0354200661
 C         -2.7172254045       -0.9501190687        0.0570280694
 N         -1.4134791084       -1.3332167323        0.0881126984
 C         -0.7114528701       -0.2294405017       -0.0030059775
 C          0.7424328407       -0.2104113051       -0.0222396113
 C          1.4740800949        0.6508014868       -0.8384375263
 C          2.8534950149        0.6202798393       -0.8256368067
 C          3.5478906885       -0.2691867228       -0.0056288117
 C          5.0148219499       -0.2893895321        0.0080137837
 C          5.7491038802        0.8938816990       -0.0788471830
 C          7.1273999592        0.8806030950       -0.0624695504
 C          7.8237718634       -0.3259197308        0.0292672492
 N          9.2204355457       -0.3440944183        0.0391259652
 C          9.9047326691       -1.2692043667        0.8384495238
 C          9.4251848967       -1.5997726547        2.1060069916
 C         10.1046799197       -2.5106269559        2.8919481398
 C         11.2723699240       -3.0998483986        2.4343404353
 C         11.7545798165       -2.7729113107        1.1770458802
 C         11.0774356996       -1.8696439009        0.3803109798
 C          9.9401821753        0.5604857605       -0.7524331037
 C          9.4863521827        0.9026549476       -2.0263857324
 C         10.2006679275        1.7936376996       -2.8042169856
 C         11.3781689803        2.3509896940       -2.3320999262
 C         11.8352490422        2.0119996800       -1.0686096497
 C         11.1232623024        1.1286959527       -0.2798943323
 C          7.0947714436       -1.5138036106        0.1109107354
 C          5.7164809897       -1.4913949739        0.1061743560
 C          2.8094605959       -1.1442419002        0.7926995782
 C          1.4312565198       -1.1193681467        0.7820457026
 N         -1.5105319734        0.8886269643       -0.0860362189
 C         -1.0395268652        2.2152963710       -0.1997882783
 C         -0.2910049546        2.7710041253        0.8304974841
 C          0.1955060447        4.0603995539        0.7034988325
 C         -0.0615751527        4.7932267963       -0.4434806552
 C         -0.8070032678        4.2361936797       -1.4708005207
 C         -1.2955427591        2.9474055667       -1.3555103995
 C         -8.4003697616       -3.8848679258       -0.9664248024
 C         -9.5299481265       -4.6720787862       -1.0416504403
 H         -8.7119821494       -6.9945809591        1.2947299140
 H         -6.7027607951       -5.5769319654        1.4204182054
 H         -4.8043916020       -5.0357442128        0.0881150540
 H         -2.7796667672       -3.6066361653        0.1571820593
 H         -7.2491067795       -1.5575260115       -0.1042911433
 H         -7.3766794870        0.3695674984        0.0923625030
 H         -8.7243124007        1.5406694240        1.5926159135
 H        -10.9381537473        2.6080991475        1.7028910880
 H         -9.6153255401        5.6269819908       -1.0309652264
 H         -7.4077336847        4.5449444470       -1.1529137440
 H         -5.4939638801        4.1813213749        0.2223347914
 H         -3.3059065197        3.1186576406        0.1203987783
 H          0.9662942359        1.3307686330       -1.5057773122
 H          3.4019840950        1.2801456737       -1.4813990076
 H          5.2311242100        1.8404685953       -0.1270617881
 H          7.6788942977        1.8081794394       -0.1140447017
 H          8.5207490992       -1.1341242039        2.4698878820
 H          9.7240215985       -2.7546613502        3.8732035455
 H         11.8030325852       -3.8079235059        3.0531072084
 H         12.6612391581       -3.2310463668        0.8090392609
 H         11.4512259929       -1.6237327178       -0.6030943761
 H          8.5747586015        0.4608930281       -2.4018977299
 H          9.8395219368        2.0468818758       -3.7905502180
 H         11.9359927868        3.0434850469       -2.9445914916
 H         12.7496292219        2.4451253616       -0.6896120221
 H         11.4778543637        0.8730004526        0.7081192953
 H          7.6208533942       -2.4555599862        0.1701558509
 H          5.1736638836       -2.4242851811        0.1451647457
 H          3.3239068510       -1.8363974013        1.4426646989
 H          0.8628110939       -1.7970885676        1.4008766705
 H         -0.0949081360        2.1904023884        1.7198783843
 H          0.7757711874        4.4919864370        1.5049429915
 H          0.3199039115        5.7984617089       -0.5387808101
 H         -1.0061717023        4.8037249440       -2.3673725188
 H         -1.8755672401        2.5010266533       -2.1506905475
 H         -8.3072851599       -3.0253766466       -1.6134899269
 H        -10.3265256427       -4.4286373568       -1.7297979349
