  73
 
 C        -10.1966246468       -1.1673008721       -0.0129522563
 C         -9.6080696691       -0.4780357097       -1.0611265478
 C         -8.2494022068       -0.2283920384       -1.0550718281
 C         -7.4475311187       -0.6743676350       -0.0021142397
 C         -6.0063999506       -0.4164734154        0.0032253158
 C         -5.0901304744       -1.5113264838        0.0643885308
 C         -5.5297590531       -2.8371524742        0.0522253816
 C         -4.6396658770       -3.8998495617        0.1973891286
 C         -3.2967019016       -3.6489850546        0.3676383660
 C         -2.8260745240       -2.3368331428        0.3309189375
 C         -3.6877846540       -1.2580307926        0.1252019196
 C         -3.2037634544        0.0847099635        0.0117828221
 C         -1.7691224900        0.3402828748        0.0118834453
 C         -1.1950710566        1.2377761963        0.9199941650
 C          0.1623366456        1.4730828490        0.9276301698
 C          0.9913985550        0.8328818668        0.0077916914
 N          2.3689783864        1.0811871143        0.0036186489
 C          2.9636095913        2.3281574547       -0.0031478567
 C          2.3827317747        3.5874744927       -0.0442518668
 C          3.2232375027        4.6839193233       -0.0704832396
 C          4.6094278436        4.5406435995       -0.0658141580
 C          5.1951588677        3.2909554301       -0.0507477170
 C          4.3690486168        2.1748699800       -0.0237794008
 C          4.6199020691        0.7645712701       -0.0248762860
 C          5.7639397834       -0.0217839267       -0.0248711114
 S          7.4181225570        0.5331017240       -0.0507460948
 C          7.9951922459       -1.1199534486       -0.0333012213
 C          9.3223358850       -1.5130670663       -0.0451071560
 C          9.6083524026       -2.8647682237       -0.0287708215
 C          8.5838970253       -3.8060853450       -0.0009647307
 C          7.2619763998       -3.4117252627        0.0107833068
 C          6.9468447710       -2.0555184747       -0.0052769740
 C          5.6551976189       -1.4209701446        0.0015678053
 C          4.3926183966       -2.0230814343        0.0448571684
 C          3.2436614639       -1.2649539185        0.0430396491
 C          3.3601622667        0.1233750557       -0.0102299822
 C          0.4321218168       -0.0552974431       -0.9098251112
 C         -0.9226448694       -0.3042226861       -0.8979855343
 C         -4.1223243485        1.1768205321       -0.1048404387
 C         -3.6868371193        2.4877414982       -0.3061517706
 C         -4.5829855124        3.5553243843       -0.3477381324
 C         -5.9307507524        3.3247980227       -0.1868842040
 C         -6.3980513841        2.0192657634       -0.0459021067
 C         -5.5259076380        0.9281546301       -0.0531179755
 C         -8.0525419214       -1.3724951669        1.0453520742
 C         -9.4133074417       -1.6104803359        1.0406842409
 H        -11.2595325822       -1.3578904957       -0.0171456304
 H        -10.2120237587       -0.1349635455       -1.8887560928
 H         -7.7898689078        0.2945249396       -1.8816868147
 H         -6.5808719963       -3.0463794079       -0.0744446611
 H         -5.0137143495       -4.9127339912        0.1898592901
 H         -2.6000264688       -4.4600802010        0.5185993355
 H         -1.7715394486       -2.1564191622        0.4730505195
 H         -1.8257607134        1.7187999242        1.6531985089
 H          0.5955714115        2.1376437773        1.6602609260
 H          1.3105074491        3.7099654011       -0.0672630432
 H          2.7953126274        5.6751188181       -0.0992183468
 H          5.2307006650        5.4234315376       -0.0842748479
 H          6.2680819833        3.1737840565       -0.0642685001
 H         10.1095879908       -0.7753682188       -0.0667867463
 H         10.6369479225       -3.1925942138       -0.0378535681
 H          8.8288850380       -4.8577709324        0.0113781707
 H          6.4709874417       -4.1462258890        0.0320843641
 H          4.3255710082       -3.0993910564        0.0847653185
 H          2.2742438143       -1.7356953046        0.0955115680
 H          1.0660071553       -0.5287899449       -1.6448262353
 H         -1.3502040325       -0.9740617308       -1.6296000171
 H         -2.6343240275        2.6844580160       -0.4412792236
 H         -4.2097364879        4.5577570176       -0.4953579844
 H         -6.6328772363        4.1450976552       -0.1837011830
 H         -7.4573519299        1.8508680341        0.0732319940
 H         -7.4462716924       -1.7043870974        1.8761302567
 H         -9.8667533610       -2.1431237394        1.8641581698
