  73
 
 O          6.3191335482        3.0916459404       -0.8468001065
 C          5.9298810329        1.9636581295       -0.4521459873
 C          6.8673807807        0.9331920064       -0.0237912554
 C          8.2468832377        1.1729407455       -0.0432127084
 C          9.1307822838        0.1959375201        0.3664980913
 C          8.6613009745       -1.0347185188        0.7988122081
 C          7.2988531093       -1.2900689469        0.8228540313
 C          6.3995301897       -0.3152590218        0.4137618927
 O          5.0789438085       -0.6349231991        0.4594821292
 C          4.1666881291        0.3038678558        0.0668993624
 C          2.8395573849       -0.0518189423        0.1318469542
 C          1.8215682878        0.8525712934       -0.2280052897
 C          0.4262027749        0.4737129225       -0.1519623057
 C         -0.5783248668        1.4332860479        0.0429186327
 C         -1.9137188172        1.0699800407        0.1088354253
 N         -2.8900741369        2.0589054108        0.3008913301
 C         -3.8872403370        2.0419854837        1.2527181560
 C         -4.1473841317        1.1059380472        2.2447955486
 C         -5.2105111326        1.3465361302        3.0948696427
 C         -5.9933611081        2.4917035429        2.9734911676
 C         -5.7235270932        3.4400321105        2.0032953741
 C         -4.6626246952        3.2203128912        1.1381900159
 C         -4.0946071062        3.9779112414        0.0551801433
 C         -4.4174393010        5.1900937949       -0.5356248285
 C         -3.6539618713        5.6303623867       -1.6018005070
 C         -2.5932716107        4.8700141759       -2.0878986632
 C         -2.2536852217        3.6580283261       -1.5166839828
 C         -2.9999393743        3.2238284496       -0.4290182236
 C         -2.2951317635       -0.2661187193        0.0039679302
 C         -1.3056013847       -1.2293401315       -0.1816685412
 N         -1.6637316915       -2.5807039027       -0.2976741080
 C         -1.0874999152       -3.6217881578        0.3997501023
 C         -0.1057400680       -3.5911359146        1.3814285421
 C          0.2797317697       -4.7931954334        1.9444408965
 C         -0.3006100197       -5.9975239917        1.5542597033
 C         -1.2981820934       -6.0310729737        0.5966304612
 C         -1.7000575361       -4.8378190788        0.0158038423
 C         -2.6919236402       -4.4999319230       -0.9697690313
 C         -3.5886987484       -5.2484237019       -1.7166271533
 C         -4.4085607983       -4.5928179379       -2.6173424085
 C         -4.3286062858       -3.2130843487       -2.7874585831
 C         -3.4421596133       -2.4459381858       -2.0550400519
 C         -2.6346702575       -3.0950731729       -1.1305184872
 C          0.0288586864       -0.8667397495       -0.2685360231
 C          2.2134941773        2.1302624012       -0.6660032236
 C          3.5301844451        2.4892210836       -0.7470291966
 C          4.5533419647        1.5862166547       -0.3794870355
 H          8.5913003962        2.1371660554       -0.3822895810
 H         10.1915338907        0.3963758097        0.3504630250
 H          9.3515571427       -1.8001033660        1.1187505049
 H          6.9104924003       -2.2410347971        1.1522227180
 H          2.6044422954       -1.0352067827        0.5066500381
 H         -0.3135611319        2.4678051245        0.1934053627
 H         -3.5331685850        0.2260683623        2.3599607625
 H         -5.4355841389        0.6325818928        3.8729230970
 H         -6.8163600928        2.6431014150        3.6555432021
 H         -6.3208258213        4.3352673909        1.9217194794
 H         -5.2494407288        5.7731116615       -0.1712687893
 H         -3.8867813960        6.5731682754       -2.0732646583
 H         -2.0259882932        5.2329725105       -2.9317058658
 H         -1.4429790217        3.0649040332       -1.9115443885
 H         -3.3338081711       -0.5483189791        0.0654175408
 H          0.3344209101       -2.6599386992        1.7038647563
 H          1.0448648255       -4.7975990102        2.7061113678
 H          0.0291197337       -6.9161004704        2.0157029189
 H         -1.7586277507       -6.9635689417        0.3079223068
 H         -3.6398352132       -6.3200292990       -1.5985706946
 H         -5.1152655769       -5.1572107253       -3.2068077345
 H         -4.9698455248       -2.7317705915       -3.5105758348
 H         -3.3725067900       -1.3801065162       -2.2094073818
 H          0.7625031163       -1.6288397892       -0.4771599976
 H          1.4639275106        2.8393075147       -0.9841849000
 H          3.8260772373        3.4650260440       -1.0988090732
