72

C     -7.243334    0.000102    1.201826
C     -6.340274    0.000025   -0.059004
C     -7.222230   -0.000008   -1.334770
C     -5.506169   -1.288841   -0.051987
C     -6.156821   -2.548373   -0.058464
C     -5.444822   -3.745385   -0.052965
C     -4.062016   -3.713526   -0.040810
C     -3.401399   -2.484578   -0.033939
C     -4.099784   -1.252871   -0.039112
N     -3.391798   -0.000058   -0.031432
C     -1.958173   -0.000096   -0.014252
C     -1.236222   -0.000122   -1.215161
C      0.159978   -0.000122   -1.197928
C      0.858573   -0.000105    0.020171
C      2.333537   -0.000065    0.039033
C      3.052060   -1.217678    0.044683
C      2.357776   -2.474124    0.004790
N      1.788350   -3.485295   -0.015346
C      4.447106   -1.176334    0.057132
C      5.322899   -2.362958    0.063524
C      5.231397   -3.350693    1.059732
C      6.071511   -4.468007    1.045236
C      7.026004   -4.611740    0.041822
C      7.147270   -3.636520   -0.943855
C      6.306074   -2.521080   -0.929621
N      5.127217    0.000027    0.046694
C      4.447035    1.176347    0.057201
C      5.322764    2.363026    0.063675
C      5.231007    3.350857    1.059768
C      6.071050    4.468227    1.045328
C      7.025749    4.611912    0.042101
C      7.147284    3.636595   -0.943447
C      6.306144    2.521110   -0.929277
C      3.051984    1.217595    0.044732
C      2.357607    2.473987    0.004844
N      1.788103    3.485113   -0.015312
C      0.130533   -0.000099    1.220844
C     -1.265662   -0.000091    1.203946
C     -4.099714    1.252796   -0.039244
C     -3.401261    2.484466   -0.034220
C     -4.061809    3.713449   -0.041244
C     -5.444613    3.745384   -0.053376
C     -6.156679    2.548412   -0.058715
C     -5.506097    1.288844   -0.052110
H     -7.900907   -0.874999    1.244607
H     -7.900775    0.875299    1.244608
H     -6.639194    0.000062    2.117909
H     -7.878996    0.875079   -1.388591
H     -6.602878   -0.000038   -2.240639
H     -7.879012   -0.875086   -1.388542
H     -7.242933   -2.609908   -0.068184
H     -5.971348   -4.695703   -0.058477
H     -3.489728   -4.637222   -0.036868
H     -2.314504   -2.512056   -0.024816
H     -1.769686   -0.000129   -2.162870
H      0.693292   -0.000125   -2.146518
H      4.509232   -3.260405    1.868769
H      5.981570   -5.224396    1.821120
H      7.679847   -5.480041    0.032547
H      7.898880   -3.739786   -1.722260
H      6.424078   -1.763315   -1.702464
H      4.508684    3.260619    1.868675
H      5.980885    5.224703    1.821105
H      7.679533    5.480259    0.032869
H      7.899052    3.739824   -1.721707
H      6.424347    1.763284   -1.702029
H      0.640483   -0.000090    2.182075
H     -1.822359   -0.000073    2.138181
H     -2.314364    2.511888   -0.025113
H     -3.489468    4.637114   -0.037447
H     -5.971081    4.695729   -0.059004
H     -7.242787    2.610005   -0.068426
