  92
 
 C          5.4288615253        1.3058145155       -1.4734497720
 C          4.9649957096        2.0283199587       -0.2070532950
 C          4.9220334175        1.0942080878        1.0004637105
 C          3.6422076249        2.7341572507       -0.4110366969
 C          3.6589173250        4.1237239293       -0.3245367205
 C          2.5254474826        4.8904451209       -0.5137061504
 C          1.3259911393        4.2622943022       -0.7921655151
 C          1.2833162891        2.8841200690       -0.8668181594
 C          2.4204633148        2.0979697103       -0.6782094661
 P          2.2842316606        0.2634403627       -0.9117579794
 C          1.7375176012       -0.2996208626        0.7551062304
 C          1.2109265777        0.6308187650        1.6510042933
 C          0.9694213857        0.3086226068        2.9702880705
 C          1.2660978432       -0.9654134831        3.4207974186
 C          1.7861889752       -1.8941253095        2.5398768217
 C          2.0448421578       -1.5927848476        1.2049605371
 C          2.6948357282       -2.6881105393        0.3823907287
 C          2.0125675001       -2.9527196469       -0.9555093317
 C          4.1891053390       -2.4226517260        0.1755702271
 C          0.8155396908        0.2673086698       -2.0429430428
 C          1.2697206991        0.5650996342       -3.3317845704
 C          0.4220628966        0.6298937008       -4.4172411975
 C         -0.9255223318        0.3707116226       -4.2301792254
 C         -1.3912329127        0.0613463820       -2.9674207329
 C         -0.5471979280       -0.0035198479       -1.8568654365
 P         -1.2733359681       -0.3243527305       -0.1845364054
 C         -1.5999444584       -2.1358180808       -0.2674325487
 C         -1.3220389400       -2.8875664695       -1.4066229481
 C         -1.5738890230       -4.2472910895       -1.4430656915
 C         -2.1031420226       -4.8752943406       -0.3297842533
 C         -2.3769445550       -4.1367710123        0.8072275219
 C         -2.1329270500       -2.7702321602        0.8632770486
 C         -2.4809290359       -1.9976771772        2.1115181081
 C         -1.8342759992       -2.6045196164        3.3565568585
 C         -3.9991982172       -1.9134554717        2.2873280336
 C         -3.0180608277        0.2344921176       -0.4800981957
 C         -3.9695334597       -0.6284439436       -1.0262952309
 C         -5.2802829742       -0.2313519913       -1.2074639759
 C         -5.6690629491        1.0413134321       -0.8262190972
 C         -4.7385105078        1.8989417780       -0.2728194004
 C         -3.4113776831        1.5202659650       -0.0958182290
 C         -2.4392631956        2.4965073403        0.5158335266
 C         -2.8120584127        2.7875509983        1.9707266101
 C         -2.3654396347        3.7911562323       -0.2938672639
 H          5.4856406255        2.0065214096       -2.3046769676
 H          4.7422946902        0.5068817027       -1.7423303941
 H          6.4150606343        0.8746999980       -1.3149360956
 H          5.7112720811        2.8032818644        0.0083926862
 H          4.1766610547        0.3165808248        0.8620057235
 H          5.8924272970        0.6241570102        1.1458194271
 H          4.6679387610        1.6521897396        1.9002185278
 H          4.5959437836        4.6204672331       -0.1110658754
 H          2.5802690683        5.9676182279       -0.4485526026
 H          0.4294529124        4.8411792586       -0.9558993771
 H          0.3387405727        2.4044777663       -1.0818840997
 H          1.0006178370        1.6332480832        1.3067806307
 H          0.5656522023        1.0494046006        3.6448990101
 H          1.1005435566       -1.2339138749        4.4542553215
 H          2.0203555213       -2.8864618401        2.9032812437
 H          2.6074675590       -3.6098311187        0.9717511359
 H          2.1293945520       -2.1107374686       -1.6356461486
 H          0.9520325541       -3.1350432874       -0.8065444035
 H          2.4521427506       -3.8303200686       -1.4265263699
 H          4.6559124918       -3.2914997515       -0.2842041709
 H          4.3385085731       -1.5690991202       -0.4802860561
 H          4.6800471520       -2.2278407484        1.1266657416
 H          2.3274951873        0.7614819169       -3.4688022857
 H          0.8059999239        0.8741914744       -5.3971749744
 H         -1.6139518250        0.4090487514       -5.0623599485
 H         -2.4464448840       -0.1316977035       -2.8375117236
 H         -0.9117423198       -2.4041494167       -2.2826735139
 H         -1.3555500161       -4.8103977669       -2.3393497425
 H         -2.3056953190       -5.9365945480       -0.3477947355
 H         -2.7972693072       -4.6360914298        1.6677408656
 H         -2.0897992715       -0.9773365332        1.9917514162
 H         -1.9979530699       -1.9530730133        4.2124070650
 H         -2.2602133139       -3.5782422563        3.5855897246
 H         -0.7638856881       -2.7169531180        3.2062475569
 H         -4.2422874225       -1.3314120817        3.1738759365
 H         -4.4601434461       -1.4372895616        1.4247464979
 H         -4.4263254511       -2.9076573997        2.4003328506
 H         -3.6844150003       -1.6304946079       -1.3156352859
 H         -5.9949000965       -0.9175033087       -1.6399135724
 H         -6.6928971610        1.3610250260       -0.9571275561
 H         -5.0526026129        2.8870907606        0.0296854399
 H         -1.4455377031        2.0297233801        0.5089708823
 H         -3.7843934085        3.2711459763        2.0323342472
 H         -2.8512995985        1.8626987147        2.5419849778
 H         -2.0716171030        3.4442634431        2.4225029948
 H         -3.3242213899        4.3041014905       -0.3001734582
 H         -1.6272732149        4.4581858252        0.1451065575
 H         -2.0825775163        3.5831723404       -1.3245033165
