  89
 
 C         11.6980834386        0.0928268027        0.1280004624
 C         10.7055857408        0.7764679224       -0.5556234566
 C          9.3884024194        0.3647820428       -0.4738803092
 C          9.0482592193       -0.7414136871        0.3053655818
 C          7.6875601756       -1.2252064015        0.4198882992
 N          7.3695841252       -2.4922647309        0.5694781866
 N          6.0524987577       -2.6024328247        0.6073936607
 C          5.5182717746       -1.3940555402        0.4972283431
 C          4.1147022676       -1.1454390797        0.5469517254
 C          3.2332131986       -2.2236505150        0.3066254452
 C          1.8815518154       -2.0488506332        0.3088889276
 C          1.2861982122       -0.7804694158        0.5619499949
 C         -0.1222088593       -0.5861027899        0.5313135422
 C         -1.0404642342       -1.6781475582        0.5616695676
 C         -2.3872262474       -1.5067575030        0.4949384959
 C         -2.9643133297       -0.2099396883        0.3852043429
 C         -4.3336614649        0.0815136180        0.2761739674
 N         -4.7981383896        1.3395018638        0.3629240305
 C         -6.1208935188        1.2719942998        0.2320047571
 C         -7.0594684578        2.3433397358        0.2854933006
 C         -6.6386636996        3.6537478645        0.5318007268
 C         -7.5545457081        4.6777940350        0.6025639782
 C         -8.9058189903        4.3940023206        0.4289318253
 C         -9.3310387276        3.1057336025        0.1819336092
 C         -8.4275581841        2.0370478629        0.0967064247
 C         -8.8432587282        0.6710465385       -0.1789011199
 C        -10.1801345477        0.3502090825       -0.4359923978
 C        -10.5863769831       -0.9366397092       -0.7156005320
 C         -9.6534433585       -1.9712677933       -0.7553772036
 C         -8.3317615077       -1.7036047272       -0.5076904708
 C         -7.8922789762       -0.3974110568       -0.2123721945
 C         -6.5404643034       -0.0682248887        0.0299735096
 N         -5.3935420343       -0.8157456285        0.0721574820
 C         -5.2925017533       -2.2162949731       -0.0944786424
 C         -5.5892064780       -3.0635924592        0.9694799980
 C         -5.4900415535       -4.4331093544        0.8000863411
 C         -5.0979476693       -4.9575523245       -0.4216403454
 C         -4.8034404533       -4.1117933134       -1.4790772259
 C         -4.8995347030       -2.7403477433       -1.3215877740
 C         -2.0545582094        0.8924246772        0.4042006323
 C         -0.7118425370        0.7131706919        0.4699133353
 C          2.1880238244        0.2804314096        0.8516463735
 C          3.5419820767        0.1072223065        0.8484149140
 N          6.5391591341       -0.4683620461        0.3682604770
 C          6.4547456940        0.9297254615        0.2330347941
 C          6.9989407083        1.7310355101        1.2092748744
 C          6.9301078987        3.1248707396        1.0994631174
 C          6.3132511373        3.7030144709        0.0242722228
 C          5.7525275288        2.9110825803       -1.0006832361
 C          5.1173348870        3.4877712020       -2.1207307970
 C          4.5953992555        2.7046460147       -3.1126436493
 C          4.6955867670        1.3080116610       -3.0355302225
 C          5.3006012781        0.7152088122       -1.9612951230
 C          5.8308839900        1.4952305676       -0.9136104508
 C         10.0575578728       -1.4403600869        0.9720850047
 C         11.3704530617       -1.0221682516        0.8849615885
 H         12.7244042449        0.4223111020        0.0640003488
 H         10.9572952049        1.6347002734       -1.1613699510
 H          8.6294979656        0.8916374255       -1.0330668236
 H          3.6674475842       -3.1902536694        0.1005182623
 H          1.2544219157       -2.8944351767        0.0758549970
 H         -0.6608753079       -2.6807132881        0.6806422011
 H         -3.0245442242       -2.3731296792        0.5561171641
 H         -5.5821745732        3.8276126542        0.6669294199
 H         -7.2317832612        5.6901353401        0.7939552314
 H         -9.6325221893        5.1912358007        0.4887310493
 H        -10.3886293740        2.9368239386        0.0590775961
 H        -10.9286222940        1.1256260672       -0.4259284564
 H        -11.6285587719       -1.1413911187       -0.9100675698
 H         -9.9682486184       -2.9786556895       -0.9831186598
 H         -7.6119198876       -2.5040986030       -0.5490208448
 H         -5.8934362426       -2.6419869826        1.9163958744
 H         -5.7183102704       -5.0905587284        1.6252876449
 H         -5.0213812978       -6.0266295750       -0.5491489021
 H         -4.4985081657       -4.5189056068       -2.4311884183
 H         -4.6703627259       -2.0703641039       -2.1371007814
 H         -2.4796465384        1.8815645856        0.3389444264
 H         -0.0738369171        1.5820197091        0.4370788449
 H          1.7995605984        1.2495928914        1.1216640918
 H          4.1785491728        0.9387179699        1.1112106021
 H          7.4762609381        1.2768312901        2.0659685742
 H          7.3621903483        3.7333621580        1.8792801562
 H          6.2485853878        4.7777544169       -0.0584626999
 H          5.0526923795        4.5646408061       -2.1780519906
 H          4.1085649606        3.1548145197       -3.9650784456
 H          4.2922394412        0.6987388283       -3.8306779066
 H          5.3771130036       -0.3618512934       -1.9135451348
 H          9.7865621783       -2.3079512383        1.5542236597
 H         12.1421310719       -1.5659367109        1.4096962171
