  104
 
 O         -0.0357440771        6.2409953204        0.4999241946
 C         -0.0319382102        5.0008142753        0.3650530872
 C          1.1221475412        4.1254079532        0.2812141931
 C          2.4766360298        4.4362929575        0.3439941504
 C          3.3961944638        3.4150361770        0.2525982664
 C          2.9740746766        2.0846677370        0.0993468050
 N          3.9645725880        1.0613497519        0.0287071215
 C          4.7148373870        0.9393971500       -1.1243073940
 C          4.4163168134        1.7276916939       -2.2433773273
 C          5.1624631022        1.6238468135       -3.3968296617
 C          6.2187798941        0.7279886312       -3.4686388972
 C          6.5066960163       -0.0697444799       -2.3771173226
 C          5.7669469828        0.0184880986       -1.2075464645
 C          6.1241706546       -0.8774693808       -0.0509271306
 C          6.2218026800       -2.3240988419       -0.4978543147
 C          5.2262195949       -3.1219226477       -1.0157034894
 C          5.5396154889       -4.4298964459       -1.3616046444
 C          6.8247655718       -4.9209099434       -1.1898073198
 C          7.8292174973       -4.1204776855       -0.6691521761
 C          7.5230524887       -2.8151128119       -0.3222203433
 C          8.3463049095       -1.7536209034        0.2373192103
 C          9.6843985291       -1.7279679559        0.5935780269
 C         10.2095048875       -0.5557774285        1.1138636081
 C          9.4164268993        0.5697878023        1.2763519787
 C          8.0740925850        0.5505562307        0.9211739399
 C          7.5499627297       -0.6125586220        0.4035942424
 C          5.1782632838       -0.7305103460        1.1121870947
 C          5.3457527720       -1.5531952892        2.2159490184
 C          4.5390542520       -1.4295298392        3.3313865850
 C          3.5559791857       -0.4517463057        3.3532461437
 C          3.3731633152        0.3754296092        2.2667529145
 C          4.1682582938        0.2407524207        1.1210955104
 C          1.6285405505        1.7569492102        0.0321223651
 C          0.6911395372        2.7719091165        0.1296936599
 C         -0.7412264624        2.7678602737        0.1265475317
 C         -1.6724473950        1.7475685032        0.0255781240
 C         -3.0200519972        2.0676921721        0.0867740755
 N         -4.0027637857        1.0369625267        0.0132234252
 C         -4.7460764837        0.9052506742       -1.1431049686
 C         -4.4584473585        1.7031019433       -2.2582824412
 C         -5.1991694622        1.5904498752       -3.4143891608
 C         -6.2392820291        0.6763537794       -3.4928392362
 C         -6.5155517915       -0.1311655101       -2.4055453769
 C         -5.7809315592       -0.0344038527       -1.2333921673
 C         -6.1194257778       -0.9490720444       -0.0857835967
 C         -6.1404672707       -2.3964247886       -0.5419617442
 C         -5.0989716807       -3.1431614683       -1.0453415139
 C         -5.3439377902       -4.4622034513       -1.4040995010
 C         -6.6075049936       -5.0140767700       -1.2590699136
 C         -7.6579612737       -4.2650600408       -0.7529440485
 C         -7.4201008276       -2.9489654513       -0.3932340047
 C         -8.3024616318       -1.9307433687        0.1565640531
 C         -9.6465079099       -1.9703683421        0.4882785574
 C        -10.2356896701       -0.8274313829        1.0050378095
 C         -9.4996546067        0.3332100110        1.1879424200
 C         -8.1516842808        0.3794426449        0.8573561626
 C         -7.5638045955       -0.7544758382        0.3434182823
 C         -5.1997748054       -0.7682487740        1.0934419835
 C         -5.3690289748       -1.5844169436        2.2017957714
 C         -4.5814698480       -1.4367724607        3.3279161861
 C         -3.6155684451       -0.4421060068        3.3552773271
 C         -3.4312861873        0.3788577840        2.2643702292
 C         -4.2074738432        0.2208670643        1.1087110904
 C         -3.4505330354        3.3955856291        0.2380356818
 C         -2.5371311801        4.4220547758        0.3330111862
 C         -1.1806163844        4.1188555859        0.2760343087
 H          2.7935482279        5.4605856463        0.4654079820
 H          4.4554446120        3.6213965551        0.3013314833
 H          3.5903062811        2.4198694951       -2.1983769778
 H          4.9171899027        2.2437934291       -4.2457833138
 H          6.8079487848        0.6478200900       -4.3688844685
 H          7.3209666890       -0.7780014697       -2.4254952823
 H          4.2247814488       -2.7395227424       -1.1502197933
 H          4.7729553720       -5.0719805952       -1.7693909642
 H          7.0454533330       -5.9416439802       -1.4660090764
 H          8.8287735345       -4.5072249816       -0.5372840283
 H         10.3059602808       -2.6022681359        0.4695460976
 H         11.2510809442       -0.5177348697        1.3976131986
 H          9.8471565593        1.4720844725        1.6843976959
 H          7.4564889411        1.4276609473        1.0495670729
 H          6.1276865808       -2.2982527705        2.1952016709
 H          4.6827056337       -2.0807179857        4.1795054808
 H          2.9293638740       -0.3305190652        4.2238828156
 H          2.6135320904        1.1402622166        2.2988051204
 H          1.3279615704        0.7255743073       -0.0863480953
 H         -1.3656361325        0.7177400317       -0.0902834400
 H         -3.6451183062        2.4097774855       -2.2082115584
 H         -4.9623236137        2.2178417235       -4.2602633409
 H         -6.8241837600        0.5891445896       -4.3952054150
 H         -7.3160065767       -0.8546210138       -2.4595239796
 H         -4.1143677307       -2.7132342344       -1.1591411512
 H         -4.5404947058       -5.0649447286       -1.8009760900
 H         -6.7747453470       -6.0422654921       -1.5449663716
 H         -8.6404378251       -4.6992162379       -0.6419295029
 H        -10.2237425610       -2.8721897194        0.3481483957
 H        -11.2828717904       -0.8402243305        1.2697609829
 H         -9.9798229520        1.2116784670        1.5927811486
 H         -7.5785640404        1.2838310897        1.0016343823
 H         -6.1366809481       -2.3440278059        2.1756512820
 H         -4.7261194332       -2.0831872684        4.1795081448
 H         -3.0036256614       -0.3028785451        4.2336244562
 H         -2.6852578322        1.1568178888        2.3003341665
 H         -4.5111358466        3.5958052868        0.2827057269
 H         -2.8602963446        5.4445596772        0.4530402585
