  78
 
 C          0.9836710149       -6.5634712651        0.2001332409
 N         -0.0274145116       -5.5466343681        0.1052618071
 C         -1.3839116114       -5.7256043536        0.0103705392
 N         -2.0415486125       -4.5938122140       -0.0669611452
 C         -1.1024613257       -3.6178351081       -0.0304467714
 C         -1.1404633370       -2.1867918168       -0.0536468553
 C         -2.3356689277       -1.4075456193       -0.1214120840
 C         -3.6040536474       -2.0113032458       -0.2391882629
 C         -4.7457049756       -1.2489303597       -0.2813265976
 C         -4.6682884061        0.1440416685       -0.2034960497
 N         -5.8493549187        0.9296692100       -0.2266963958
 C         -6.7459704257        0.8839402948        0.8312906013
 C         -6.5324963672        0.0839222557        1.9527135856
 C         -7.4509923662        0.0603234891        2.9867747629
 C         -8.5949284680        0.8391118211        2.9297933321
 C         -8.8135037589        1.6589082525        1.8346453209
 C         -7.8988146837        1.6882132786        0.7952040256
 O         -8.1622410285        2.5369963242       -0.2459326589
 C         -7.2670063554        2.5729612759       -1.2807659655
 C         -7.5465393665        3.4308800564       -2.3312536596
 C         -6.6917393348        3.4981679457       -3.4195121399
 C         -5.5646983881        2.6939354445       -3.4583795527
 C         -5.2771026369        1.8362133693       -2.4119641586
 C         -6.1119459387        1.7713383957       -1.2975056238
 C         -3.4178138093        0.7602700813       -0.0945110483
 C         -2.2764596254        0.0013903092       -0.0591625599
 N          0.0438679250       -1.5618675524       -0.0027490976
 C          1.1956664343       -2.1951291472        0.0813785264
 C          2.4073860037       -1.3997012171        0.1164526319
 C          2.3601370988       -0.0120602405       -0.0690215136
 C          3.5108848534        0.7413596565       -0.0476674712
 C          4.7449415103        0.1262815936        0.1680514919
 N          5.9314663872        0.9030634121        0.1897625032
 C          6.1506978942        1.8233522705        1.2074766229
 C          5.2574831357        1.9898949658        2.2632961948
 C          5.5053134409        2.9212200379        3.2566570386
 C          6.6500724746        3.6986163993        3.2212167624
 C          7.5627760618        3.5294782340        2.1923616895
 C          7.3228559972        2.5981263070        1.1964128246
 O          8.2772317796        2.4634063642        0.2228680127
 C          8.0527270200        1.5420802095       -0.7658045435
 C          9.0254843874        1.4140479270       -1.7426642956
 C          8.8509877122        0.5182870820       -2.7853814424
 C          7.6927831991       -0.2366703427       -2.8536370384
 C          6.7166021618       -0.1152961359       -1.8800134335
 C          6.8856376154        0.7606687242       -0.8102067002
 C          4.8061459035       -1.2532851291        0.3593969358
 C          3.6529144302       -2.0046879539        0.3289397024
 N          1.3292028142       -3.5470295763        0.1421657729
 C          0.1740227257       -4.2010630587        0.0721534658
 H          1.9433594046       -6.0687419663        0.3377758444
 H          1.0123573949       -7.1630746166       -0.7128061785
 H          0.7838676621       -7.2185327141        1.0503348013
 H         -1.8399933830       -6.6948101324        0.0073933878
 H         -3.6615558116       -3.0872116375       -0.2967653844
 H         -5.7133721311       -1.7205813271       -0.3790754205
 H         -5.6383133865       -0.5161193127        2.0079348824
 H         -7.2649200535       -0.5701939049        3.8423099084
 H         -9.3118913291        0.8186008458        3.7349923674
 H         -9.6861094663        2.2888487257        1.7662095953
 H         -8.4399198994        4.0323927156       -2.2769579608
 H         -6.9134454958        4.1698444725       -4.2334540357
 H         -4.9019525344        2.7286004665       -4.3090445169
 H         -4.4036235966        1.2051297980       -2.4509461643
 H         -3.3630136174        1.8376436474       -0.0273027393
 H         -1.3067510533        0.4645793799        0.0357776222
 H          1.4004217381        0.4495463783       -0.2403562003
 H          3.4705091390        1.8097845140       -0.2030555368
 H          4.3682851095        1.3811763849        2.3026958122
 H          4.7960386025        3.0341462413        4.0617915589
 H          6.8416538595        4.4276998010        3.9923278317
 H          8.4717444249        4.1077308945        2.1436285074
 H          9.9086453765        2.0284866718       -1.6686045117
 H          9.6141319802        0.4211207194       -3.5410761868
 H          7.5400002319       -0.9257280959       -3.6697392135
 H          5.8119584623       -0.6983762968       -1.9461141297
 H          5.7630112076       -1.7237902564        0.5342006502
 H          3.6855226591       -3.0730445844        0.4753750341
