  49
 
 N          8.3857670492       -1.1227581877        0.0283687495
 C          7.4316850107       -0.4835674553        0.0377502550
 C          6.2665072464        0.3090152596        0.0495486842
 C          6.3626136062        1.7029304057        0.0863748011
 C          5.2195612194        2.4839330821        0.0978930264
 C          3.9595928096        1.9038721485        0.0728390486
 C          3.8352779501        0.5210131750        0.0360856223
 C          4.9947535208       -0.2749998653        0.0253123485
 S          4.6496834031       -1.9845242456       -0.0186389817
 C          2.9299891836       -1.6629970206       -0.0228589782
 C          1.9175904443       -2.6210129797       -0.0506981086
 C          0.6115484554       -2.2031848785       -0.0482178674
 C          0.2799492370       -0.8256494100       -0.0203481191
 C         -1.0768585616       -0.4094323135       -0.0174927595
 N         -2.0774777968       -1.3221243133       -0.0121828059
 C         -3.3214535983       -0.9234980075       -0.0008669375
 C         -4.3916282873       -1.9087459687        0.0129930464
 C         -5.7265454780       -1.4980793821        0.0115599177
 C         -6.7405345238       -2.4349541065        0.0275912672
 C         -6.4389157211       -3.7887586520        0.0450054859
 C         -5.1145299495       -4.2039664473        0.0461388538
 C         -4.0951842135       -3.2741113467        0.0302217424
 N         -3.6561147233        0.3853523677        0.0010047062
 C         -2.6436918677        1.2750223519       -0.0130008971
 C         -2.9766931441        2.6937535267       -0.0221397092
 C         -1.9671002584        3.6568502067       -0.0851956208
 C         -2.2891671571        4.9987853574       -0.0955628295
 C         -3.6170544215        5.3986885494       -0.0436334346
 C         -4.6246367489        4.4476700730        0.0191635882
 C         -4.3105261621        3.1030264049        0.0294310469
 N         -1.3881012002        0.9130709775       -0.0191811403
 C          1.3184098522        0.1289031205        0.0064569882
 C          2.6335021341       -0.2829311589        0.0070504801
 H          7.3411628243        2.1583627773        0.1054479379
 H          5.3133882677        3.5584155653        0.1267272676
 H          3.0743185102        2.5198872964        0.0819704706
 H          2.1656036821       -3.6709097042       -0.0727283178
 H         -0.1943249760       -2.9194370965       -0.0687622356
 H         -5.9444288165       -0.4411226793       -0.0024724646
 H         -7.7708523986       -2.1110729222        0.0264914861
 H         -7.2339254037       -4.5192361681        0.0576848567
 H         -4.8790863240       -5.2579640127        0.0595380252
 H         -3.0605567561       -3.5817880113        0.0317449240
 H         -0.9391873986        3.3306944286       -0.1271103570
 H         -1.5041697034        5.7389312663       -0.1448487128
 H         -3.8654456934        6.4494481288       -0.0520503320
 H         -5.6585492703        4.7572081953        0.0594718739
 H         -5.0832142723        2.3511646890        0.0781437353
 H          1.0600945401        1.1752046014        0.0287315273
