  112
 
 C          6.4792676235        1.9001460657       -4.1065874245
 C          5.2904878630        2.1221169231       -4.7821012805
 C          4.0984962168        1.6456190064       -4.2675866662
 C          4.0776128133        0.9327206367       -3.0711960593
 C          2.8156387218        0.4124011633       -2.5206831089
 C          1.6690288787        1.2155645688       -2.5076170947
 C          0.4772656880        0.7787730784       -1.9647895343
 C          0.4426579720       -0.4916106868       -1.4113472128
 C          1.5630621691       -1.3458636674       -1.4881108942
 C          2.7534042833       -0.8848744684       -2.0258524148
 C          1.1497044125       -2.6116065228       -0.9434854066
 C          1.8027874669       -3.8188770691       -0.7541766485
 C          1.1146378756       -4.8814201692       -0.1805278333
 C          1.7803214004       -6.1782538168        0.0234736508
 C          1.1116792711       -7.3715839279       -0.2422001650
 C          1.7386767514       -8.5889729458       -0.0500948780
 C          3.0420511573       -8.6363263743        0.4165457542
 C          3.7169553958       -7.4566487315        0.6838877217
 C          3.0933252750       -6.2386909335        0.4858217928
 C         -0.2190045950       -4.7085833109        0.2121714688
 C         -0.8862497854       -3.5120916213        0.0382644875
 C         -0.2001538931       -2.4645522342       -0.5568305990
 N         -0.6136910078       -1.1677159865       -0.8228859776
 C         -1.8160959763       -0.5974362898       -0.4048316676
 C         -3.0097806763       -1.1906478045       -0.7327814073
 C         -4.2332514786       -0.6137909276       -0.3437663485
 N         -5.3875032128       -1.2126844063       -0.6677239628
 C         -6.5129917816       -0.6233585891       -0.3032631725
 C         -7.7714720234       -1.2516744756       -0.6340547025
 C         -7.8222929239       -2.4693477522       -1.3221315859
 C         -9.0496812168       -3.0250586101       -1.6089921454
 C        -10.1943409017       -2.3407683796       -1.1968394872
 N        -10.1678699145       -1.1980741785       -0.5500715198
 C         -8.9888176821       -0.6459551690       -0.2635330932
 C         -8.9812796494        0.6196120441        0.4541231947
 N        -10.1539269251        1.1619476003        0.7824546559
 C        -10.1668928470        2.3040053118        1.4307409395
 C         -9.0140224384        2.9974037162        1.8027215956
 C         -7.7929783577        2.4519993619        1.4722653474
 C         -7.7565215649        1.2349489474        0.7821072584
 C         -6.5054120292        0.6157753979        0.4085946610
 N         -5.3723821694        1.2125466932        0.7355969057
 C         -4.2255402267        0.6200726619        0.3755116437
 C         -2.9937409950        1.2011683053        0.7302610757
 C         -1.8077182901        0.6091772742        0.3738257581
 N         -0.5967219052        1.1774603029        0.7694947503
 C          0.4626711494        0.5008596432        1.3502360186
 C          0.4998635280       -0.7712429453        1.8995970952
 C          1.6948338522       -1.2105473954        2.4315356147
 C          2.8390675153       -0.4026704254        2.4546750296
 C          4.0945919250       -0.9295604713        3.0127822714
 C          4.8978807320       -0.1444645613        3.8370283808
 C          6.0736630613       -0.6486448529        4.3622721116
 C          6.4704127056       -1.9427804624        4.0681780465
 C          5.6814542551       -2.7315246741        3.2467805080
 C          4.5030842344       -2.2304277507        2.7253032578
 C          2.7722629191        0.8976864284        1.9682037553
 C          1.5830957768        1.3553997136        1.4240430703
 C          1.1667907779        2.6217625460        0.8823794361
 C          1.8159278800        3.8314558558        0.6950004668
 C          1.1233319454        4.8931394542        0.1248959111
 C          1.7836015139        6.1938029634       -0.0714219044
 C          2.6067356560        6.7255328531        0.9193579386
 C          3.2207518258        7.9518667348        0.7433800229
 C          3.0270447327        8.6667456426       -0.4271987214
 C          2.2146218071        8.1461577281       -1.4210191617
 C          1.5966429491        6.9216972359       -1.2447043609
 C         -0.2119030184        4.7195267409       -0.2614722219
 C         -0.8782638609        3.5235305017       -0.0810471024
 C         -0.1859046019        2.4750742851        0.5048158767
 C          5.2790437947        0.7143855264       -2.4002722250
 C          6.4691334652        1.1971560156       -2.9129175458
 H          7.4096550410        2.2742204154       -4.5085222664
 H          5.2930816423        2.6671932352       -5.7153423214
 H          3.1760217480        1.8076576003       -4.8066345183
 H          1.7241165914        2.2129856945       -2.9174375848
 H         -0.3976582986        1.4111109224       -1.9807326070
 H          3.6151420589       -1.5324272692       -2.0811318219
 H          2.8294908377       -3.9349238916       -1.0662891175
 H          0.1002790477       -7.3425010357       -0.6214320148
 H          1.2088591498       -9.5056894218       -0.2667857111
 H          3.5296137801       -9.5880403702        0.5698866984
 H          4.7332885138       -7.4867788811        1.0501891678
 H          3.6221271424       -5.3231962887        0.7072249952
 H         -0.7344578228       -5.5311263692        0.6853896050
 H         -1.9085658153       -3.4014807419        0.3685111534
 H         -3.0332623488       -2.0921540538       -1.3249525244
 H         -6.8953477416       -2.9415837963       -1.6101781873
 H         -9.1307676086       -3.9619353283       -2.1370439462
 H        -11.1820376047       -2.7349612333       -1.3985969134
 H        -11.1500060316        2.6900101299        1.6676928738
 H         -9.0840417901        3.9332668526        2.3341538820
 H         -6.8604788599        2.9317604967        1.7281455856
 H         -3.0035380028        2.1025986734        1.3229909170
 H         -0.3771141385       -1.4003474824        1.9265276999
 H          1.7418519114       -2.1979759948        2.8659563157
 H          4.5858079276        0.8598742435        4.0848920018
 H          6.6822123386       -0.0303509773        5.0068196405
 H          7.3895057167       -2.3353796875        4.4783004986
 H          5.9877771481       -3.7411771130        3.0125481983
 H          3.8949155823       -2.8428517633        2.0756651560
 H          3.6397095672        1.5391698105        1.9966906746
 H          2.8547894504        3.9388838909        0.9669364212
 H          2.7474872916        6.1810020669        1.8420568244
 H          3.8506423577        8.3539094324        1.5241642597
 H          3.5067540170        9.6249742238       -0.5642072812
 H          2.0630458565        8.6969578136       -2.3385123852
 H          0.9771661972        6.5153347159       -2.0313479561
 H         -0.7425701305        5.5540048967       -0.6953401888
 H         -1.9064309269        3.4157577546       -0.3935326004
 H          5.2727739613        0.1780372009       -1.4618308894
 H          7.3930039552        1.0252592881       -2.3791026726
