  118
 
 C          6.4533451630        5.7376512980        0.3172500816
 C          7.6201216244        5.4211985166       -0.3610622805
 C          8.0636471548        4.1139506407       -0.4052001985
 C          7.3406860790        3.0993471750        0.2244454587
 C          7.8598390165        1.7421153286        0.1491194351
 N          9.1430318495        1.4696137734        0.1358359669
 C          9.2393734243        0.1160359770        0.0701286192
 C         10.4235958208       -0.6757162023        0.0511560180
 C         11.7007378422       -0.1284841687        0.1137404320
 C         12.8137707019       -0.9522895361        0.1039580436
 C         12.6652778642       -2.3230649335        0.0290541846
 C         11.3965214703       -2.9074558834       -0.0400605282
 C         11.2306371484       -4.3201862881       -0.1286382145
 C          9.9998994965       -4.8727134201       -0.2193682553
 C          8.8235245013       -4.0666324446       -0.2279345826
 C          7.5558927827       -4.6433117477       -0.3529524809
 C          6.4266000461       -3.8533805590       -0.3906537472
 C          6.5267797180       -2.4769711897       -0.2750267566
 C          7.7665572143       -1.8602333172       -0.1144074241
 C          8.9476906545       -2.6590386333       -0.1173493469
 C         10.2459326582       -2.0799614624       -0.0291573679
 C          7.9663135528       -0.4561443817        0.0276578680
 N          7.0892001497        0.6027976220        0.0898262911
 C          5.6796980303        0.5731736189        0.0647118088
 C          4.9947809630        1.1333149302       -1.0096886604
 C          3.6162806333        1.1333899096       -1.0229267251
 C          2.8827704934        0.5670284237        0.0272734196
 C          1.4250700289        0.5640356780        0.0076061135
 C          0.7132630504       -0.6697342868        0.1324945392
 C          1.3786075346       -1.8992707360        0.1737645727
 C          0.6866476668       -3.1049962896        0.2570862682
 C         -0.6916784320       -3.1043911749        0.2566261673
 C         -1.3817201870       -1.8983460917        0.1666102193
 C         -0.7140831590       -0.6698852686        0.1216382907
 C         -1.4238559799        0.5606552661       -0.0318557279
 C         -2.8835366225        0.5593952978       -0.0438099966
 C         -3.5964549058        1.0727058192       -1.1334780284
 C         -4.9753349537        1.0638333670       -1.1493167650
 C         -5.6795141725        0.5533784107       -0.0626826945
 N         -7.0886550267        0.5753492366       -0.0648012493
 C         -7.8658304924        1.7106400870       -0.1209704750
 C         -7.3563652914        3.0727604405       -0.1734495800
 C         -8.0742080582        4.0135393517       -0.9134379937
 C         -7.6434759919        5.3239033772       -0.9858688174
 C         -6.4951545274        5.7168047929       -0.3162088897
 C         -5.7904944404        4.7944469664        0.4395211283
 C         -6.2157409508        3.4805758646        0.5160527428
 N         -9.1472470462        1.4316035174       -0.1077437158
 C         -9.2364415262        0.0777456148       -0.0343193843
 C        -10.4169917411       -0.7160637486        0.0402746640
 C        -11.6962498294       -0.1703108212        0.0514091706
 C        -12.8049925621       -0.9943357439        0.1482315340
 C        -12.6499976592       -2.3639057498        0.2322163002
 C        -11.3790343777       -2.9473553848        0.2169689983
 C        -11.2063622051       -4.3601886447        0.2899714535
 C         -9.9739627861       -4.9144498368        0.2440638518
 C         -8.8022326219       -4.1098599359        0.1269366937
 C         -7.5337774887       -4.6922684405        0.0455598944
 C         -6.4098295924       -3.9070358346       -0.0995292527
 C         -6.5154766348       -2.5267120389       -0.1324887630
 C         -7.7555140598       -1.9000751099       -0.0175689707
 C         -8.9324301393       -2.6991868222        0.0820597150
 C        -10.2327904337       -2.1194399865        0.1195873487
 C         -7.9605885728       -0.4893511841       -0.0184787652
 C         -4.9863322513        0.0515747814        1.0378239628
 C         -3.6080917543        0.0453558359        1.0387287957
 C         -0.7133755475        1.7924976914       -0.1697659274
 C         -1.3825800196        3.0189233094       -0.2401507208
 C         -0.6926685610        4.2263191319       -0.3123959606
 C          0.6850796348        4.2304205318       -0.2691785930
 C          1.3772720390        3.0264809157       -0.1630684685
 C          0.7135424512        1.7957164485       -0.1389016939
 C          3.5894930330        0.0047469826        1.0988826498
 C          4.9672563896        0.0137463757        1.1246348281
 C          6.1815981051        3.4293223411        0.9248752131
 C          5.7434491696        4.7405691515        0.9654109032
 H          6.1044707011        6.7592257591        0.3489741502
 H          8.1853166351        6.1965291348       -0.8571331392
 H          8.9721794957        3.8528273889       -0.9259962137
 H         11.7984755384        0.9446649379        0.1732168670
 H         13.8023150438       -0.5191670503        0.1551118564
 H         13.5358086281       -2.9636411805        0.0200794919
 H         12.1170152092       -4.9387579437       -0.1265559892
 H          9.8788259813       -5.9442850102       -0.2937842514
 H          7.4733502650       -5.7176186125       -0.4338910873
 H          5.4531024778       -4.3062211436       -0.5115501148
 H          5.6319095904       -1.8778881262       -0.3194353567
 H          5.5529150089        1.5610904066       -1.8296923674
 H          3.0907084442        1.5443358697       -1.8718182402
 H          2.4558338555       -1.9219856073        0.1234408598
 H          1.2366768052       -4.0331644859        0.3050751605
 H         -1.2425770059       -4.0319616399        0.3060904953
 H         -2.4589161141       -1.9184456918        0.1135145535
 H         -3.0549298411        1.4489358468       -1.9884748612
 H         -5.5177347837        1.4477511190       -2.0008890945
 H         -8.9687481878        3.6932860627       -1.4255502554
 H         -8.2043612257        6.0416122024       -1.5663243958
 H         -6.1565316768        6.7405898334       -0.3753023561
 H         -4.9068684778        5.1001609529        0.9806299325
 H         -5.6719201682        2.7800627052        1.1316811552
 H        -11.7988146374        0.9022038689       -0.0115253098
 H        -13.7952774343       -0.5622820810        0.1587240447
 H        -13.5172809218       -3.0045620491        0.3071345129
 H        -12.0890966033       -4.9780781682        0.3754243976
 H         -9.8478882891       -5.9870300046        0.2899258816
 H         -7.4466913596       -5.7686006682        0.0829785879
 H         -5.4361252116       -4.3668464178       -0.1881638006
 H         -5.6246439421       -1.9334235212       -0.2596907305
 H         -5.5386320220       -0.3291804336        1.8851631400
 H         -3.0759293201       -0.3288268968        1.9006954054
 H         -2.4608305447        3.0355116526       -0.2247706508
 H         -1.2445778600        5.1518077699       -0.3833291163
 H          1.2350810868        5.1591416414       -0.3032085873
 H          2.4525286899        3.0508369275       -0.0837614063
 H          3.0424888202       -0.4084335795        1.9332729660
 H          5.5047920738       -0.4075523169        1.9623251201
 H          5.6315057688        2.6685672706        1.4576099999
 H          4.8447375535        4.9844576944        1.5130846092
