70

O     -4.066805   -5.180449   -1.592692
N     -3.323893   -5.146963   -0.601186
O     -3.293575   -6.014195    0.283763
C     -2.413318   -4.003220   -0.468295
C     -2.468913   -2.959589   -1.398900
C     -1.602344   -1.870543   -1.265737
C     -0.686447   -1.804101   -0.200442
C      0.245372   -0.640801   -0.040562
C     -0.245399    0.640754   -0.040643
C      0.686413    1.804047   -0.200603
C      0.630592    2.873871    0.709891
C      1.491721    3.968088    0.583985
C      2.413332    4.003124   -0.468511
N      3.323940    5.146842   -0.601414
O      4.067456    5.179873   -1.592486
O      3.293055    6.014507    0.283087
C      2.469097    2.959333   -1.398927
C      1.602489    1.870321   -1.265754
N     -1.636442    0.947546    0.078163
C     -2.479679    0.531324    1.119015
C     -2.203445   -0.196165    2.295030
C     -3.254401   -0.491103    3.167251
C     -4.545438   -0.058668    2.895596
C     -4.809665    0.696795    1.750462
C     -3.762834    1.009766    0.855765
C     -3.699244    1.783089   -0.336957
C     -4.664209    2.513614   -1.064956
C     -4.294331    3.191356   -2.228741
C     -2.981847    3.144999   -2.678182
C     -2.009272    2.427307   -1.976191
C     -2.379062    1.760022   -0.790347
N      1.636412   -0.947594    0.078280
C      2.479686   -0.531201    1.119035
C      2.203499    0.196518    2.294915
C      3.254482    0.491616    3.167042
C      4.545502    0.059102    2.895438
C      4.809685   -0.696590    1.750452
C      3.762828   -1.009705    0.855836
C      3.699208   -1.783192   -0.336778
C      4.664157   -2.513806   -1.064709
C      4.294274   -3.191639   -2.228446
C      2.981796   -3.145288   -2.677899
C      2.009226   -2.427536   -1.975955
C      2.379022   -1.760160   -0.790158
C     -0.630798   -2.873767    0.710249
C     -1.491916   -3.968000    0.584380
H     -3.176722   -2.974565   -2.225382
H     -1.653867   -1.072782   -2.005076
H     -0.078438    2.860645    1.536700
H      1.430962    4.775719    1.310732
H      3.177070    2.974157   -2.225266
H      1.654159    1.072438   -2.004950
H     -1.198943   -0.530406    2.532936
H     -3.057162   -1.063585    4.070901
H     -5.353716   -0.294874    3.583337
H     -5.818244    1.052429    1.558474
H     -5.694753    2.550643   -0.722530
H     -5.040229    3.753092   -2.785557
H     -2.706409    3.669192   -3.590759
H     -0.995984    2.390233   -2.360707
H      1.199014    0.530834    2.532784
H      3.057275    1.064284    4.070573
H      5.353803    0.295435    3.583106
H      5.818259   -1.052270    1.558510
H      5.694700   -2.550814   -0.722284
H      5.040166   -3.753430   -2.785220
H      2.706361   -3.669535   -3.590456
H      0.995943   -2.390467   -2.360481
H      0.078088   -2.860398    1.537175
H     -1.431305   -4.775514    1.311274
