  69
 
 C         -5.7949772005       -4.3736279645        0.6790014574
 C         -4.8105919374       -3.2586568343        0.4996243358
 C         -5.0142375696       -2.2683972825       -0.4498764989
 C         -4.1243201228       -1.2176787644       -0.6056737356
 C         -4.3961247135       -0.1880251801       -1.6636040851
 C         -2.9708101373       -1.1377833233        0.1940178167
 B         -1.9207412887        0.0056147815       -0.0142834952
 C         -0.4216640533       -0.3953354420       -0.2338077165
 C         -0.0762267487       -1.5772309427       -0.9006701439
 C          1.2393899772       -1.9313112238       -1.1074576701
 C          2.2649738921       -1.1123388540       -0.6317621524
 C          3.6561524686       -1.4847633273       -0.8386032918
 N          3.9080369988       -2.6203545104       -1.5020653213
 C          5.1818229525       -2.8978006352       -1.6538223804
 Cl         5.5569977760       -4.3373571789       -2.4932185871
 N          6.1992391997       -2.1842302652       -1.2278437359
 C          5.8631034855       -1.0652971847       -0.5750222510
 C          6.9419164314       -0.2221247309       -0.0718190454
 C          8.2709928255       -0.5910686963       -0.2773090628
 C          9.2899392601        0.2090043907        0.2014102902
 C          8.9938183505        1.3781006085        0.8857331463
 C          7.6736370991        1.7488351283        1.0920002910
 C          6.6486922224        0.9546612084        0.6166947030
 N          4.6084998867       -0.6884773426       -0.3639624013
 C          1.9426557352        0.0662169072        0.0434635221
 C          0.6225994090        0.4158621729        0.2271902945
 C         -2.2837575575        1.5297370212       -0.0147304621
 C         -1.8857316526        2.3676442974       -1.0668861375
 C         -1.1617912433        1.8292968532       -2.2693198992
 C         -2.1711999413        3.7251697680       -1.0335941894
 C         -2.8423785871        4.2975685457        0.0337579032
 C         -3.1511705407        5.7631745906        0.0701066137
 C         -3.2396444692        3.4695476729        1.0753880829
 C         -2.9798685973        2.1098384190        1.0614384408
 C         -3.4237514641        1.2731530020        2.2260040845
 C         -2.7679600798       -2.1400221759        1.1560257501
 C         -1.5756837534       -2.1199355152        2.0713950783
 C         -3.6815684139       -3.1725027793        1.2997239978
 H         -5.2877797701       -5.2977188833        0.9483169241
 H         -6.4931342887       -4.1287251848        1.4805236771
 H         -6.3686703072       -4.5365708656       -0.2303803254
 H         -5.8907670093       -2.3160313061       -1.0817142240
 H         -5.3555018770       -0.3727874805       -2.1413298116
 H         -4.4057501398        0.8110720867       -1.2335615261
 H         -3.6224606009       -0.2105758240       -2.4297069190
 H         -0.8656900634       -2.2197544324       -1.2651836578
 H          1.5004136264       -2.8402474021       -1.6267986823
 H          8.4797905419       -1.5041849466       -0.8119296345
 H         10.3191939410       -0.0766612813        0.0423882379
 H          9.7931223926        2.0014710431        1.2590667115
 H          7.4466158278        2.6601703012        1.6253601193
 H          5.6158268298        1.2257994912        0.7672718856
 H          2.7427321580        0.6927670138        0.4058408656
 H          0.3800450943        1.3339588324        0.7443317133
 H         -1.3592537144        0.7717830072       -2.4175641217
 H         -0.0859179428        1.9559705100       -2.1450436943
 H         -1.4602870378        2.3719537141       -3.1646165013
 H         -1.8604053357        4.3476349190       -1.8618006620
 H         -2.7927265930        6.2055718091        0.9985569381
 H         -4.2282503870        5.9229042320        0.0208310885
 H         -2.6870137430        6.2804930698       -0.7659021061
 H         -3.7689661875        3.8995964400        1.9148910453
 H         -4.0354104789        0.4393503836        1.8887258991
 H         -4.0010549243        1.8694240318        2.9288358008
 H         -2.5641777242        0.8606168253        2.7523997503
 H         -0.7774283670       -2.7370311862        1.6581110509
 H         -1.1869408575       -1.1144732546        2.2033247864
 H         -1.8405308623       -2.5257901046        3.0461661218
 H         -3.5078930981       -3.9290877722        2.0529457049
