  52
 
 C         -5.0940633979        0.8610190087        1.8350647211
 C         -3.7285149240        0.4720678109        1.2664048462
 C         -2.7633381986        0.2511137894        2.4514833938
 C         -3.1552419585        1.5380138486        0.3525059377
 C         -3.6199780702        2.8393649395        0.2735947808
 C         -3.0426532657        3.7534348205       -0.5958038045
 C         -1.9995406928        3.3674470767       -1.4230673240
 C         -1.5124241349        2.0778520569       -1.3591956047
 C         -2.0625624709        1.1705217343       -0.4519562903
 N         -1.6216410046       -0.1557851611       -0.3915860573
 C         -0.2892185937       -0.5143706344       -0.2989867840
 C          0.1069714287       -1.8598655348       -0.1754933925
 C          1.4321188809       -2.2001209783       -0.0935217448
 C          2.4508831804       -1.2167661450       -0.0725460103
 C          3.8400642242       -1.5702687239        0.0281492225
 O          4.2302430847       -2.7784919884        0.0564336185
 C          4.7570926396       -0.4513725975        0.0617444949
 C          6.1460659016       -0.6485161433        0.1455167967
 C          7.0097612652        0.4239505228        0.2046850792
 C          6.5185383936        1.7209805211        0.1797076095
 C          5.1483659506        1.9417504923        0.0946566120
 C          4.2764415916        0.8700142242        0.0331052568
 O          2.9394721161        1.1650630232       -0.0568847418
 C          2.0459190519        0.1375073801       -0.1254753850
 C          0.7179433718        0.4823661420       -0.2099771766
 C         -2.6746334512       -1.0777341758       -0.3796074956
 C         -2.6790978739       -2.1892836878       -1.2234098658
 C         -3.7502981439       -3.0596040099       -1.2095038134
 C         -4.8240852287       -2.8193160734       -0.3666488801
 C         -4.8427420267       -1.6877404114        0.4352836873
 C         -3.7856520886       -0.7940179888        0.4336038976
 H         -5.4610262155        0.0775658179        2.4922803284
 H         -5.8155334815        1.0266740735        1.0386409550
 H         -5.0056753107        1.7651910850        2.4309219918
 H         -1.7675499478       -0.0267482077        2.1162076250
 H         -2.6849205675        1.1640649317        3.0372715340
 H         -3.1426563739       -0.5428684721        3.0906575200
 H         -4.4433751479        3.1592786774        0.8899752115
 H         -3.4234588434        4.7621565341       -0.6411719773
 H         -1.5749117758        4.0652644785       -2.1283901321
 H         -0.7370793714        1.7509299047       -2.0350019496
 H         -0.6315271294       -2.6415785545       -0.1090751792
 H          1.7392512856       -3.2301821217       -0.0016859056
 H          6.5055658226       -1.6666724426        0.1655801324
 H          8.0736260774        0.2491203394        0.2705456630
 H          7.1928248865        2.5620604031        0.2242486807
 H          4.7426692195        2.9414493240        0.0727834511
 H          0.4712375257        1.5295867023       -0.1685316869
 H         -1.8638671051       -2.3360287275       -1.9152051433
 H         -3.7518544344       -3.9165025781       -1.8655465231
 H         -5.6603369015       -3.5011629429       -0.3486427463
 H         -5.7003705278       -1.5111145023        1.0626489166
