  101
 
 N        -10.8871122450       -7.2701583119       -0.5253391688
 C         -9.9718519559       -6.5817004563       -0.4584359242
 C         -8.8436082201       -5.7373456154       -0.3768452219
 C         -8.8776083399       -4.5958908913        0.4270556875
 C         -7.7726384443       -3.7755825123        0.5005042696
 C         -6.6100047064       -4.0712743088       -0.2149858232
 C         -5.4337494902       -3.1995195651       -0.1305758245
 C         -4.1486929352       -3.7483846242       -0.0745783875
 C         -3.0549046235       -2.9205926743       -0.0046503952
 C         -3.2129656899       -1.5316766544        0.0092485047
 C         -4.4992478286       -0.9465678192       -0.0285372378
 C         -5.5875942465       -1.8168694539       -0.1053743964
 C         -4.6477230955        0.5042240251        0.0229690389
 C         -5.8972302127        1.0996818987        0.0772128910
 C         -6.0883737162        2.4822914894        0.1700097570
 C         -7.4230976351        3.0502531304        0.2262262821
 C         -8.5001279691        2.4408251093       -0.4373055576
 C         -9.7640609414        2.9778816640       -0.3899154438
 C        -10.0016160827        4.1510972691        0.3363383323
 C        -11.2939603687        4.7045635414        0.3914069025
 N        -12.3487265022        5.1581041020        0.4368696120
 C         -8.9391081610        4.7696854981        1.0063922634
 C         -7.6774097841        4.2289862575        0.9453390439
 C         -4.9419708258        3.3009439943        0.2223636458
 C         -3.6934706527        2.7587807822        0.1556968254
 C         -3.4916917563        1.3600408802        0.0454315969
 C         -2.2333485734        0.7521134453       -0.0060434685
 C         -2.0829062513       -0.6680432156        0.0366009349
 N         -0.8025454226       -1.0086922976        0.0835659690
 C         -0.0920122719        0.1264694889        0.0361635449
 C          1.3149410894        0.1165894224       -0.0075596204
 C          2.1413703795        1.2139463683       -0.3634559245
 C          3.5004188162        1.0980339833       -0.3663646340
 C          4.1562018569       -0.1107762956       -0.0325788410
 C          5.5900783150       -0.2125683504       -0.0263142159
 C          6.4104071268        0.9194245358        0.1616795492
 C          7.7778581333        0.8262478365        0.1708026918
 C          8.4132912241       -0.4102579817       -0.0116086963
 N          9.8000159528       -0.5072982228       -0.0051639179
 C         10.4229989821       -1.6469559490        0.5161527761
 C          9.9036730955       -2.2807828911        1.6457571738
 C         10.5219455258       -3.4053867689        2.1555046029
 C         11.6640083054       -3.9113725999        1.5553001835
 C         12.1850709163       -3.2832992926        0.4351745050
 C         11.5720144704       -2.1610790283       -0.0860723511
 C         10.5805081479        0.5331711271       -0.5212546941
 C         10.1633285018        1.2337846635       -1.6538189128
 C         10.9370532716        2.2602714085       -2.1582622780
 C         12.1347935811        2.6007015750       -1.5498980451
 C         12.5547245897        1.9054497638       -0.4269685435
 C         11.7864094197        0.8806199482        0.0890578035
 C          7.6134130053       -1.5462875115       -0.2008323943
 C          6.2463590043       -1.4480876111       -0.2058722508
 C          3.3270274239       -1.2169671648        0.2789844655
 C          1.9706558487       -1.1115394280        0.2902088235
 N         -0.9480483921        1.2414324800       -0.0135732759
 C         -0.5489892389        2.5896337474        0.0080780212
 C          0.0775355468        3.1072526269        1.1384737951
 C          0.4786049888        4.4301067218        1.1538734665
 C          0.2576557264        5.2397489687        0.0511496018
 C         -0.3672396035        4.7242712590       -1.0736975656
 C         -0.7711908493        3.4025710820       -1.1013170307
 C         -6.5873270037       -5.2175933719       -1.0128315207
 C         -7.6878301585       -6.0422507256       -1.0993922189
 H         -9.7712644486       -4.3663367574        0.9888642643
 H         -7.7975928461       -2.9058273004        1.1403973572
 H         -4.0223203860       -4.8206088006       -0.0653179913
 H         -2.0514491022       -3.3143296441        0.0363140524
 H         -6.5905698481       -1.4277997363       -0.1784582296
 H         -6.7785633439        0.4795572900        0.0939752457
 H         -8.3286375987        1.5519632081       -1.0262619993
 H        -10.5816771088        2.5053163217       -0.9150098600
 H         -9.1236341687        5.6707904390        1.5733832196
 H         -6.8743636502        4.7038556708        1.4888613721
 H         -5.0522431227        4.3728499740        0.2864390743
 H         -2.8353727236        3.4091067825        0.2021262172
 H          1.6970326824        2.1439783547       -0.6786900483
 H          4.0895598584        1.9465794660       -0.6808403822
 H          5.9557199267        1.8797527290        0.3488198121
 H          8.3794720761        1.7067652098        0.3445401891
 H          9.0220651982       -1.8778625176        2.1221012673
 H         10.1141184951       -3.8850094266        3.0327161015
 H         12.1452659749       -4.7891817101        1.9581877820
 H         13.0713733543       -3.6749087680       -0.0412576619
 H         11.9715769465       -1.6793215457       -0.9663569666
 H          9.2372979481        0.9586125475       -2.1367782169
 H         10.6067645497        2.7923427447       -3.0378872316
 H         12.7374910003        3.4020553730       -1.9487559968
 H         13.4841673754        2.1683464886        0.0556369399
 H         12.1084328189        0.3472881881        0.9713744623
 H          8.0880999631       -2.5022248256       -0.3686284691
 H          5.6646353626       -2.3358438378       -0.3981360206
 H          3.7812369181       -2.1566340537        0.5540742802
 H          1.3489837039       -1.9544024415        0.5461831404
 H          0.2482255623        2.4658650786        1.9902812399
 H          0.9623340993        4.8312317422        2.0317372195
 H          0.5720207090        6.2721992070        0.0675467825
 H         -0.5380733751        5.3529493592       -1.9346816675
 H         -1.2589331419        2.9900188552       -1.9724074118
 H         -5.7023361593       -5.4475291250       -1.5873858018
 H         -7.6672507235       -6.9234720899       -1.7238620863
