56

C     -9.273621   -1.581609   -0.232804
C     -8.223833   -0.762673    0.502751
C     -8.105056    0.645016   -0.081788
C     -7.144562    1.549840    0.696036
C     -5.697950    1.056556    0.797010
C     -5.021514    0.875849   -0.564021
C     -3.569080    0.495011   -0.414922
C     -3.198450   -0.846433   -0.266599
C     -1.854165   -1.197795   -0.111355
C     -0.855073   -0.217429   -0.108789
C      0.542722   -0.627777    0.086503
C      1.583247   -0.057885   -0.542933
C      2.980442   -0.469498   -0.346708
C      3.353435   -1.812248   -0.239957
C      4.696885   -2.165578   -0.083764
C      5.697948   -1.183667   -0.041237
C      7.051808   -1.524157    0.115759
C      8.053825   -0.540497    0.154561
C      9.407997   -0.879444    0.311814
C     10.392250    0.109447    0.348381
C     10.035801    1.448984    0.228274
C      8.694543    1.801732    0.071373
C      7.692246    0.818222    0.032635
C      6.338076    1.157491   -0.124789
C      5.335591    0.173625   -0.162996
C      3.979483    0.512956   -0.320602
C     -1.230050    1.125445   -0.234836
C     -2.574210    1.478842   -0.389373
H     -9.340874   -2.585672    0.197637
H    -10.260345   -1.113540   -0.157974
H     -9.019978   -1.682491   -1.292927
H     -7.263601   -1.285238    0.435709
H     -8.491747   -0.704484    1.563945
H     -7.799161    0.586973   -1.132697
H     -9.094607    1.119515   -0.077331
H     -7.533986    1.688208    1.712455
H     -7.148685    2.542277    0.228174
H     -5.132623    1.788183    1.389335
H     -5.660038    0.119724    1.365752
H     -5.529458    0.101335   -1.150742
H     -5.098576    1.800416   -1.149863
H     -3.954687   -1.628205   -0.268817
H     -1.594894   -2.248137   -0.000002
H      0.694283   -1.447629    0.784395
H      1.431670    0.761867   -1.240958
H      2.606620   -2.600849   -0.288631
H      4.955242   -3.218959   -0.001051
H      7.330580   -2.572112    0.209060
H      9.706468   -1.921026    0.407366
H     11.436047   -0.167541    0.470651
H     10.800532    2.220719    0.256542
H      8.435843    2.854204   -0.020785
H      6.059839    2.205604   -0.218506
H      3.698871    1.560448   -0.414679
H     -0.482954    1.914356   -0.200803
H     -2.838514    2.529725   -0.482881
