  95
 
 C         -2.3495620228       -3.3074503371        3.6992178968
 C         -2.3103212032       -2.1196640160        2.9867597672
 C         -2.4930747030       -2.1229115426        1.6172812843
 C         -2.7034000391       -3.3262194997        0.9512819831
 N         -2.8896350386       -3.3344347487       -0.4401989886
 C         -2.1232395754       -2.7081744914       -1.4040996208
 C         -0.8814297019       -2.0078810527       -1.1177709418
 C          0.0155332342       -2.4322601035       -0.1398233696
 C          1.1343660153       -1.6760173338        0.1515321420
 C          1.3725476630       -0.4776886294       -0.5131786691
 C          2.4682146626        0.4201804130       -0.1028040297
 C          3.7810784805       -0.0220920397       -0.0828853975
 C          4.8152056344        0.8425601583        0.2626969081
 N          6.1360255377        0.3792841087        0.2910005180
 C          7.2213278634        0.9832269045       -0.3131444324
 C          7.2709211919        2.1145971744       -1.1147222910
 C          8.4995311476        2.4930940896       -1.6210179107
 C          9.6548917633        1.7639351346       -1.3486805521
 C          9.6076602533        0.6231841365       -0.5727609875
 C          8.3841235013        0.2225545128       -0.0525159938
 C          7.9711234331       -0.8914054398        0.7543966692
 C          8.6498972450       -1.9562557576        1.3319230056
 C          7.9359908660       -2.8637087082        2.0885924560
 C          6.5653832433       -2.7109559814        2.2851161880
 C          5.8683122409       -1.6599055713        1.7208490966
 C          6.5759425126       -0.7581122985        0.9392379521
 C          4.5268542629        2.1674884404        0.5779738157
 C          3.2185854278        2.6109421428        0.5603640913
 C          2.1767659361        1.7498860483        0.2404564126
 C          0.7729357284        2.1940092889        0.2710437729
 C          0.3445191576        3.2928037173       -0.4663801393
 C         -0.9998295065        3.6008736391       -0.5586535050
 C         -1.9382210519        2.8190136273        0.1064070682
 N         -3.3120960750        3.0306267309       -0.0603939649
 C         -4.0033072614        4.2123778849        0.1056182764
 C         -3.5367532208        5.4606793253        0.4903916507
 C         -4.4572973185        6.4846483860        0.6053631066
 C         -5.8115938034        6.2764369671        0.3533427289
 C         -6.2841210183        5.0310384429       -0.0099387727
 C         -5.3788604414        3.9854992480       -0.1335758370
 C         -5.5118187146        2.5953290118       -0.4715327529
 C         -6.5881252179        1.7917149227       -0.8259964363
 C         -6.3527185104        0.4659949141       -1.1313936164
 C         -5.0622095760       -0.0591099988       -1.1076264403
 C         -3.9765921702        0.7192666243       -0.7558487958
 C         -4.2118580499        2.0443534539       -0.4165837305
 C         -1.5061546223        1.7773051317        0.9240248680
 C         -0.1667802468        1.4659922862        0.9991346641
 C          0.5206464467       -0.1032094414       -1.5511574733
 C         -0.5877501736       -0.8613391147       -1.8564108676
 N         -2.6356535594       -2.8043158457       -2.5999874171
 C         -3.7946106778       -3.5161176683       -2.4630017451
 C         -4.7396377541       -3.8897559276       -3.4124878009
 C         -5.8442017333       -4.5881092518       -2.9743027924
 C         -6.0230274645       -4.9076218852       -1.6263413108
 C         -5.0974854861       -4.5487210352       -0.6669756107
 C         -3.9758902189       -3.8619355138       -1.1024352285
 C         -2.7455704333       -4.5187358041        1.6647879839
 C         -2.5709939094       -4.5031626708        3.0370496547
 H         -2.2097778202       -3.3006791449        4.7695835874
 H         -2.1441592421       -1.1851749447        3.5018870047
 H         -2.4759126230       -1.2020683191        1.0550924940
 H         -0.1595154946       -3.3532886395        0.3965900821
 H          1.8110087381       -1.9977962568        0.9304460240
 H          4.0070757793       -1.0383038610       -0.3707573972
 H          6.3785623479        2.6758853612       -1.3475773099
 H          8.5648258727        3.3721105102       -2.2452643842
 H         10.5966647586        2.0944439824       -1.7608108252
 H         10.4998566004        0.0482699176       -0.3754634775
 H          9.7149020509       -2.0651813486        1.1929468802
 H          8.4442390662       -3.7002738591        2.5445655962
 H          6.0363559141       -3.4281901735        2.8954629784
 H          4.8096633360       -1.5393007051        1.8951359372
 H          5.3269134693        2.8361667776        0.8570081969
 H          2.9945890887        3.6335760836        0.8271175748
 H          1.0674963540        3.8785007561       -1.0157308347
 H         -1.3308732150        4.4212723427       -1.1776790749
 H         -2.4908565787        5.6256470903        0.7021250392
 H         -4.1201080527        7.4676100386        0.8998892710
 H         -6.4991209872        7.1032950790        0.4518700056
 H         -7.3355566463        4.8678567534       -0.1927112417
 H         -7.5857952444        2.2022177412       -0.8681001843
 H         -7.1751138067       -0.1763119472       -1.4089869792
 H         -4.9098526956       -1.0922910246       -1.3827042946
 H         -2.9739252819        0.3167043206       -0.7701871407
 H         -2.2342100845        1.2145468250        1.4893410981
 H          0.1598012382        0.6467757093        1.6224445757
 H          0.7281456821        0.7975916256       -2.1093801620
 H         -1.2586483198       -0.5724257400       -2.6504864238
 H         -4.6033115322       -3.6282455599       -4.4492996936
 H         -6.5977962750       -4.8924609405       -3.6855535132
 H         -6.9097752931       -5.4468554693       -1.3277075457
 H         -5.2459009312       -4.7851542719        0.3762747100
 H         -2.9017214836       -5.4496624493        1.1399092601
 H         -2.6027306377       -5.4304304173        3.5894936280
