63

N      2.088397    3.709035   -0.921396
C      1.678855    2.678092   -0.580794
C      1.121363    1.417738   -0.173265
C     -0.279532    1.285962   -0.216482
C     -0.930383    0.063958    0.051020
C     -2.404093   -0.053149    0.002071
N     -3.100061    1.042111   -0.299507
C     -4.424805    0.889576   -0.330476
C     -5.247764    2.072735   -0.661017
C     -6.654679    2.003312   -0.701908
C     -7.435400    3.121304   -1.014435
C     -6.826203    4.340064   -1.294799
C     -5.439201    4.441502   -1.262958
C     -4.661743    3.321374   -0.949901
N     -5.056257   -0.258137   -0.082595
C     -4.272735   -1.296493    0.209912
C     -4.923770   -2.593691    0.492749
C     -6.325221   -2.737423    0.459199
C     -6.943354   -3.963610    0.726453
C     -6.172518   -5.079789    1.034763
C     -4.786298   -4.970903    1.075893
C     -4.171716   -3.743001    0.808075
N     -2.941101   -1.243474    0.265245
C     -0.113676   -1.039716    0.355466
C      1.280294   -0.931148    0.405221
C      1.900297    0.301172    0.161385
N      3.315882    0.369167    0.252272
C      4.071057    1.275703    1.022180
C      3.673347    2.273124    1.934867
C      4.658548    3.040327    2.562155
C      6.006713    2.815327    2.313347
C      6.409522    1.799581    1.441494
C      5.440803    1.004729    0.796586
C      5.451488   -0.092447   -0.069367
C      6.479404   -0.850621   -0.662103
C      7.892191   -0.799574   -0.614082
C      8.659991   -1.719511   -1.336598
C      8.047483   -2.694661   -2.111935
C      6.655586   -2.774810   -2.185286
C      5.880844   -1.850147   -1.458060
S      4.133052   -1.764191   -1.411814
C      4.200902   -0.475204   -0.357248
H     -0.878802    2.157974   -0.485900
H     -7.161373    1.063594   -0.487435
H     -8.518862    3.036010   -1.038091
H     -7.431290    5.209519   -1.538131
H     -4.957488    5.391278   -1.481770
H     -3.578934    3.434185   -0.934239
H     -6.956119   -1.882419    0.220836
H     -8.027040   -4.042633    0.692589
H     -6.651454   -6.033082    1.242447
H     -4.178985   -5.839961    1.316000
H     -3.084949   -3.690569    0.847964
H     -0.563351   -2.010287    0.565606
H      1.859839   -1.813229    0.673226
H      2.627753    2.458165    2.161113
H      4.363705    3.825798    3.254822
H      6.756986    3.426482    2.809337
H      7.468505    1.628125    1.279195
H      8.395917   -0.046134   -0.016684
H      9.745307   -1.667194   -1.289847
H      8.655691   -3.402838   -2.670068
H      6.179440   -3.536978   -2.795300
