  104
 
 C          8.5982024069        0.7083335226       -0.5304217953
 C          7.1312706516        0.5107315845       -0.2759462924
 C          6.3027209974       -0.0318608681       -1.2628570159
 C          6.8282128034       -0.4882323111       -2.5667894285
 C          7.7933406918       -1.4870078016       -2.6514160338
 C          8.2507167566       -1.9173899274       -3.8840909734
 C          7.7536762244       -1.3531830382       -5.0473388295
 C          6.7876832762       -0.3630660283       -4.9727112033
 C          6.3230189805        0.0627543016       -3.7411883875
 C          4.9346604937       -0.1445911489       -1.0442315202
 C          4.3778747922        0.2893916172        0.1450286926
 N          2.9673479856        0.1836506589        0.3520644841
 C          2.5363558680       -0.6511552226        1.3766013571
 O          3.3570924990       -1.2823188649        2.0473916807
 C          1.1051980284       -0.7399736962        1.5761971681
 C          0.6045174744       -1.5263007028        2.6277513631
 C         -0.7514943844       -1.5933351548        2.8491076069
 C         -1.6441099620       -0.9273281175        2.0158558010
 C         -1.1887055706       -0.1726588861        0.9265445024
 C         -2.0507651590        0.5303444407        0.0302374888
 N         -3.4414652013        0.3961198716        0.0930290601
 C         -4.2163068862        1.5443598470       -0.0016172951
 C         -3.7644397855        2.7414417572        0.5704168668
 C         -4.5112602647        3.8910545044        0.4588318728
 C         -5.7323831547        3.8961003823       -0.2243816621
 C         -6.5226458014        5.1233337065       -0.3459308758
 C         -7.9154235947        5.0856249846       -0.2590110605
 C         -8.6585403068        6.2454995485       -0.3689953742
 C         -8.0271565381        7.4611817913       -0.5803774260
 C         -6.6451134791        7.5104171436       -0.6747452305
 C         -5.8978534306        6.3542514533       -0.5537412331
 C         -6.1755268080        2.6983943238       -0.7962484697
 C         -5.4354752054        1.5435197823       -0.6935314053
 C         -4.0207364308       -0.8574011132        0.1605846112
 C         -5.2579752107       -1.0388605397        0.8049429515
 C         -5.8302185806       -2.2876139824        0.8980515651
 C         -5.1666489125       -3.3793878543        0.3449543210
 C         -3.9231431159       -3.2043757545       -0.2979031984
 C         -3.3502860472       -1.9643525894       -0.3924774509
 C         -3.4016294763       -4.5248850346       -0.8164691659
 C         -3.2554964325       -4.5033066070       -2.3421250220
 C         -2.0659608355       -4.8837221272       -0.1551076893
 C         -4.4980906307       -5.4720265753       -0.3826205583
 C         -4.5885489541       -6.8345596881       -0.5664588805
 C         -5.7024594674       -7.5046750666       -0.0751050351
 C         -6.7118037246       -6.8208725123        0.5908728932
 C         -6.6319689698       -5.4530355293        0.7819913665
 C         -5.5195334099       -4.7787664217        0.2929843146
 C         -1.5127132888        1.3789863676       -0.9583227788
 C         -0.1620944605        1.5097309887       -1.1187930216
 C          0.7261940996        0.7879221767       -0.2883974261
 C          0.2181167234       -0.0456615366        0.7296779610
 C          2.1490968852        0.9294780790       -0.4889551111
 O          2.6450883417        1.6717579909       -1.3434122801
 C          5.1875894898        0.8281279271        1.1286476455
 C          6.5598239199        0.9249552645        0.9310184809
 C          7.3750283164        1.4927620540        2.0262313489
 C          8.3789290253        0.7452596172        2.6340878942
 C          9.1136519946        1.2760267963        3.6790751591
 C          8.8585170306        2.5614385196        4.1276974601
 C          7.8572260425        3.3107534618        3.5324765048
 C          7.1166350236        2.7782985780        2.4921349586
 H          8.7832313015        0.8525751830       -1.5923261394
 H          8.9641939471        1.5737564358        0.0173459805
 H          9.1697613645       -0.1596355465       -0.2044874545
 H          8.1708863863       -1.9376652252       -1.7455446179
 H          8.9974299613       -2.6966650585       -3.9369778550
 H          8.1149372201       -1.6863610633       -6.0094036927
 H          6.3929158870        0.0782286349       -5.8768347168
 H          5.5693838150        0.8354723128       -3.6774794818
 H          4.3009834835       -0.5691400401       -1.8097751863
 H          1.3132407071       -2.0493320757        3.2514376260
 H         -1.1346439741       -2.1774020572        3.6728494661
 H         -2.6998734489       -0.9988757719        2.2230506132
 H         -2.8356383795        2.7428290233        1.1211439100
 H         -4.1623859415        4.7957104535        0.9327571744
 H         -8.4138882591        4.1453029590       -0.0755779872
 H         -9.7351613763        6.2036339793       -0.2895502198
 H         -8.6092265304        8.3664613108       -0.6706937788
 H         -6.1487469870        8.4548497665       -0.8451241915
 H         -4.8228084658        6.3984271916       -0.6481796770
 H         -7.0949419155        2.6886803268       -1.3612396520
 H         -5.7709296868        0.6385755131       -1.1773968012
 H         -5.7391237896       -0.1881940296        1.2636588690
 H         -6.7720752753       -2.4163836001        1.4080631895
 H         -2.4087694818       -1.8144754315       -0.8979884232
 H         -2.9434032504       -5.4802549343       -2.7020826865
 H         -4.2035304380       -4.2463726799       -2.8103249055
 H         -2.5085287185       -3.7706238485       -2.6377085507
 H         -2.1726563695       -4.9100076959        0.9273620317
 H         -1.7296161274       -5.8602849345       -0.4941268894
 H         -1.3061646252       -4.1480706724       -0.4085971036
 H         -3.8115186266       -7.3794259334       -1.0815683471
 H         -5.7849461730       -8.5728752647       -0.2131264364
 H         -7.5668544756       -7.3657712222        0.9634051731
 H         -7.4160554170       -4.9224626788        1.3006094515
 H         -2.1910733836        1.8921971914       -1.6240355050
 H          0.2626343027        2.1398344972       -1.8842789508
 H          4.7531923632        1.1573397938        2.0618145348
 H          8.5675710280       -0.2624816260        2.2946408426
 H          9.8874668048        0.6838996553        4.1462431691
 H          9.4352774269        2.9766480312        4.9413577723
 H          7.6506849591        4.3128607048        3.8804833147
 H          6.3358066180        3.3615983862        2.0240268522
