164
 xtb: 6.7.1 (edcfbbe)
C           12.07106777558327        1.08092391390347       -0.47902838235437
C           10.69727351304743        0.75883508470239       -0.98594322795661
C           10.52817464928747       -0.07603631026343       -2.08630058207857
C            9.25787074405671       -0.38874382168943       -2.53816663549362
C            8.14092997367112        0.12313256932391       -1.90695253944959
C            8.29201882019028        0.95834720807646       -0.80059821318788
N            7.16859530807728        1.48184569910457       -0.14832501492565
C            7.18616969317527        2.79062781082903        0.34457051336849
C            6.54428724360576        3.10803593418846        1.54306114384181
C            6.56835092730825        4.40609188077886        2.01140022965066
C            7.23150024861439        5.39950146031511        1.30920441742268
C            7.88354162504307        5.09965700572371        0.11917080168133
C            8.58105442136965        6.16356973409174       -0.67443677327771
C            7.84858166166162        3.79710660043649       -0.35579910709340
C            6.03424856248089        0.68423146708320        0.02900206946368
C            6.16982011380557       -0.67855158735599        0.28624808626034
C            5.03746781223911       -1.47623354161529        0.44440700033444
C            3.74205434565765       -0.91788525916501        0.38052548861067
C            3.63284759648289        0.46884654742253        0.14944208331097
C            4.76566939137002        1.25333860088631       -0.05415029929409
N            2.37521992147012        1.05550517481458        0.10521650793484
C            2.32377526991689        2.46969767033937        0.06102008399261
C            1.94724176631239        3.17737684720992       -1.08880759367761
F            1.61242712094443        2.47046681815358       -2.19585788819810
C            1.90395113593818        4.55208056759968       -1.13587610683497
C            2.25248651394157        5.28443372859025       -0.00581643130478
C            2.63547401105827        4.62517304727945        1.15712396535930
C            2.66569646119264        3.24958422796718        1.17438104814503
F            3.04316877253073        2.61188340251320        2.30803045518659
C            1.19008108967973        0.34469197023848        0.10831362664746
C           -0.01629435098511        1.03676887176363        0.05276981952000
C           -1.23880581868728        0.37674551106086       -0.03177427899111
C           -1.26497311203523       -1.03663799858729       -0.20064495519201
C           -0.04865947129922       -1.69525575022856       -0.01332846519552
C            1.18236324795420       -1.07555139494928        0.20782157463494
B            2.51011861689339       -1.78887411849919        0.51993559275489
C            2.79031895115140       -3.24376983425705        0.94274503245541
C            1.82199858895372       -4.17430786412192        1.34736193398566
C            2.12959569584606       -5.47440363666539        1.67832815413550
C            3.45067057190625       -5.92205684670741        1.62593329459138
C            3.78396448445093       -7.34307875340899        1.96581354321381
C            4.43697944587886       -5.02012467542735        1.27657727321469
C            4.13608168212981       -3.68950482628053        0.95841331030210
N            5.18079950540103       -2.82802396986035        0.67056321212165
C            6.50830202860904       -3.35700533415476        0.64858377964106
C            7.27196894778457       -3.38107966264082        1.80770735512853
C            8.56107573233158       -3.88341060390165        1.75878513998210
C            9.08145261806903       -4.35538207114060        0.56720191327612
C            8.32364714939456       -4.33787991928185       -0.59953505065652
C            8.89131572306289       -4.86876542957594       -1.87993029001233
C            7.03210482055239       -3.83232914512465       -0.54584138725300
B           -2.61064200674354       -1.70289452793203       -0.53864500237186
C           -2.92728901035037       -3.12966450475628       -1.02625557626667
C           -1.98347868364051       -4.06154305567504       -1.48232220864634
C           -2.32282699745754       -5.33889074951051       -1.86651867501753
C           -3.65294443365799       -5.75985845599158       -1.82015574282246
C           -4.01961473814081       -7.15833715758316       -2.21475420789137
C           -4.61617606699408       -4.85281340614529       -1.42285940266413
C           -4.28281545915283       -3.54445572465604       -1.04950839861080
N           -5.30525141338406       -2.67371686973681       -0.71426179913372
C           -6.64506253832992       -3.17103795077451       -0.70850904387792
C           -7.41580902127165       -3.11897343422784       -1.86209000405245
C           -8.71782054230412       -3.58802398482559       -1.82800516773906
C           -9.24365208211087       -4.10296562905183       -0.65674866907389
C           -8.47863475078146       -4.16256087776307        0.50382987185499
C           -9.05194301563784       -4.74066119927824        1.76097323025491
C           -7.17420291604820       -3.68956891037894        0.46533912880256
C           -5.12932256553610       -1.33727798705615       -0.42759347922098
C           -6.24200663390161       -0.52290481183218       -0.22205173075016
C           -6.07308066765295        0.82340332122209        0.09432816912455
N           -7.18737682009191        1.63895384304125        0.31451081144483
C           -7.17977256614626        2.96463239866694       -0.13182519720832
C           -7.79950074228958        3.96675613986321        0.61568647473020
C           -7.77821370575042        5.27215856846848        0.16561674217443
C           -7.14108990961129        5.59966631036372       -1.01940842125394
C           -6.51924693609823        4.61346352202691       -1.77777191639663
C           -5.85919984863575        4.94765600735622       -3.08168179561115
C           -6.54685918253271        3.30316782340498       -1.32751491440917
C           -8.31482080240454        1.11666899187457        0.95901139048731
C           -8.17088260570086        0.23063563145106        2.02577184057270
C           -9.29244520435355       -0.28462258322272        2.64652650497173
C          -10.55957388172658        0.07341859276388        2.22176919276828
C          -10.72162620001986        0.95974879038201        1.16045776793566
C          -12.09629685942779        1.34813313865736        0.70533563722572
C           -9.59610032474937        1.47068371748995        0.53632449535593
C           -4.79152254999568        1.35964456260150        0.19352761359367
C           -3.67820906267056        0.56006543025163       -0.05368285764710
C           -3.82111367517335       -0.81139140430640       -0.34936411144630
N           -2.40673144745886        1.11421760330517        0.01088592417830
C           -2.32186827608586        2.52137563911524        0.13901962444138
C           -2.66099898989188        3.37541668558708       -0.91904371054911
F           -3.06587212177482        2.81689680707692       -2.08502928636490
C           -2.60367037383735        4.74643148660813       -0.81745179548469
C           -2.19439936434765        5.32425304224371        0.37915888868035
C           -1.84697938754369        4.51662282858337        1.45707973316880
C           -1.91775122985681        3.14857514779620        1.32545766607253
F           -1.58461925709211        2.36684071503358        2.38162377430105
C            9.57536566648351        1.26480317298956       -0.34984598210102
H           12.44140810533692        0.26321362511856        0.13640664720745
H           12.76462181530981        1.21742040694338       -1.30826132356351
H           12.06007210481614        1.98561896115640        0.12427956607096
H           11.39480602668556       -0.47814619465467       -2.59108991860452
H            9.13482861936029       -1.03021175866131       -3.39955030785313
H            7.14974864364155       -0.11241738035486       -2.26635103514835
H            6.04197791015650        2.33365378689347        2.10362787053206
H            6.08142219440395        4.64060424675420        2.94583236106937
H            7.24734054006771        6.40963645684347        1.68723293120747
H            9.39390545423155        5.74838684934106       -1.26388982933214
H            7.85977218115749        6.65082058857314       -1.35807958934150
H            8.97247058360923        6.94386327468220        0.00243132462258
H            8.33456076269123        3.55220533645485       -1.29165677648492
H            7.16050648025425       -1.09878244806988        0.35467771445487
H            4.68370177158595        2.30422467359434       -0.28566996873390
H            1.60436572352766        5.03716877956020       -2.05061922971798
H            2.22353579847864        6.36002355216093       -0.03137098591371
H            2.90653061077411        5.16955809676053        2.04671115164470
H           -0.00314648722089        2.11546900090946        0.07827709631952
H           -0.06109331468519       -2.77049557325238       -0.04037660344030
H            0.79539004026607       -3.85136299973197        1.41978392517204
H            1.34641075172014       -6.15728796014418        1.97847752402940
H            3.22371752798848       -8.02633094274994        1.32808802028565
H            4.84609045904640       -7.53661805816648        1.83934104436374
H            3.51128216235758       -7.55827211322032        2.99977883725131
H            5.46350541946589       -5.35453401714139        1.26233612712340
H            6.85314662066977       -3.00822074586146        2.73107635608796
H            9.16088821182405       -3.90432821012309        2.65721601806652
H           10.08861717844234       -4.74497308547914        0.53937755061825
H            8.25410437444960       -4.61677934185516       -2.72224635703724
H            8.97935987751702       -5.95464198604968       -1.82622379613827
H            9.88617936290220       -4.46313857993841       -2.05211156374577
H            6.41862116401511       -3.80359891048212       -1.43432791114169
H           -0.95085171418819       -3.75751677188354       -1.55071369753107
H           -1.55808237718048       -6.02499228326955       -2.20352681315164
H           -3.48684933765149       -7.87809131262974       -1.59306138124028
H           -3.73888729159419       -7.34509598815742       -3.25101876474437
H           -5.08830119694288       -7.32732706142235       -2.10702556147080
H           -5.65000963908729       -5.16436911889971       -1.41337084584649
H           -6.99258227883173       -2.71286778969489       -2.76900071052943
H           -9.32357783187459       -3.54904685284424       -2.72137393057996
H          -10.26098566977425       -4.46548049237024       -0.63986823483078
H           -9.14478989950970       -5.82242711948798        1.66447361177708
H          -10.04505392968300       -4.33632534199828        1.94803705373047
H           -8.41509441674149       -4.52525755415298        2.61447240597795
H           -6.55520114525664       -3.71862736954127        1.35046013653160
H           -7.24254405854047       -0.91638130753607       -0.29867800608093
H           -8.28578690338676        3.71478180024850        1.54597317080589
H           -8.25507473092671        6.04475988065889        0.75081841508423
H           -7.12778227617113        6.62488718893804       -1.35965796562094
H           -6.57129900326915        4.82692921289861       -3.89937391188261
H           -5.51169611728258        5.97799375805252       -3.08837608719387
H           -5.01948132467458        4.28240250050259       -3.27094359795738
H           -6.07137081581639        2.52737411431140       -1.91157870249091
H           -7.18175554631797       -0.04154681630265        2.36261107063345
H           -9.17471656139830       -0.96589219204090        3.47602334269889
H          -11.43059115361668       -0.33280982900508        2.71426074818823
H          -12.05113934265397        1.96561050522780       -0.18887415027124
H          -12.60622941356823        1.90872596304421        1.48795193664668
H          -12.69084503499698        0.46151968834091        0.48997546528590
H           -9.70291698393803        2.15285743658883       -0.29576583530352
H           -4.68506710334692        2.39652739025125        0.47450273704509
H           -2.87642273655926        5.34988873679695       -1.66739826289371
H           -2.14552808430604        6.39563994512146        0.47146208726845
H           -1.52750160772800        4.93880292346223        2.39592089540177
H            9.68864574046511        1.90708127853058        0.51111688225615
