164
 xtb: 6.7.1 (edcfbbe)
C           12.06837516828067        1.12410526339483       -0.38879272345418
C           10.69335939589683        0.82793855476673       -0.90884409457688
C           10.52008592621279        0.06110883544137       -2.05620257032505
C            9.24763790911083       -0.22617720095610       -2.51849140161655
C            8.13340294636369        0.24354763639767       -1.85066264407052
C            8.28836558735295        1.00697639230161       -0.69469322880746
N            7.16809351153706        1.48781303270833       -0.00320026274826
C            7.19725275998639        2.76233571299911        0.57370879374552
C            6.59266472461405        2.99900126054060        1.80740646782653
C            6.63135371070121        4.26467538708476        2.36073872272719
C            7.26995829902253        5.30212870530825        1.70522014265168
C            7.88202641941749        5.08332254984599        0.47462543377132
C            8.58443011149788        6.20525073909246       -0.22985303797106
C            7.83599815273293        3.81557584253674       -0.08108883747270
C            6.03310232127642        0.68183677082390        0.13191283965391
C            6.16960825582627       -0.69014530237323        0.28978850468616
C            5.03793183465103       -1.49543775067157        0.41038489214146
C            3.74645748378335       -0.92745253548578        0.40125725997421
C            3.63702776655133        0.47052314228246        0.25868527584257
C            4.76739971303629        1.26300690898765        0.10328061185309
N            2.37724060784473        1.05470816000509        0.25216021506823
C            2.32223894700200        2.46943992439124        0.20689983263567
C            2.02531692314925        3.15996518527859       -0.97022750216694
F            1.76716887278974        2.42752589314929       -2.09036892104908
C            1.98324772584084        4.54020756676605       -1.03561519200187
C            2.25295730258846        5.27591914711263        0.10594683829697
C            2.55102330085652        4.63393651954037        1.29722710775480
C            2.58245391473900        3.25104042139647        1.33202779105824
F            2.87931889425660        2.64926746951713        2.49023170525648
C            1.18693203495810        0.34090778640076        0.19460943442153
C           -0.01470491971529        1.03787961794601        0.11521651307261
C           -1.23491968641904        0.38190860555829       -0.00837429498279
C           -1.26390826755289       -1.02454116409505       -0.15802268336869
C           -0.05148264494053       -1.68453393692120        0.02162218146692
C            1.17863653593422       -1.07249253099452        0.24696131315712
B            2.51198143308348       -1.80352254812677        0.50984694717347
C            2.79638700202569       -3.28183519193006        0.84799885827948
C            1.83152159988459       -4.22865476086047        1.22017722724150
C            2.13508884211047       -5.54649989166923        1.46599817114348
C            3.45231161964998       -5.99427272011507        1.35205130123087
C            3.78414681728495       -7.43673727523901        1.58878158194198
C            4.43377351063836       -5.08052202077878        1.03269844579649
C            4.13597896238013       -3.72961723918389        0.80245266820664
N            5.17991465189621       -2.85962458840693        0.54101589257195
C            6.50122531908940       -3.39442370087779        0.43654647917222
C            7.30248148949403       -3.50871434508356        1.56464047373575
C            8.58428770396410       -4.01575662953658        1.43767322616288
C            9.06086673697284       -4.40503584815786        0.19874335664003
C            8.26578125015126       -4.29722991585264       -0.93780867730531
C            8.78639343272579       -4.73927937729543       -2.27116798786905
C            6.98200569634739       -3.78646287656183       -0.80512404576040
B           -2.61439021205500       -1.70086290364201       -0.47406569323770
C           -2.93629714787060       -3.13767153322932       -0.93154982775623
C           -1.99725385543884       -4.06910101978859       -1.39663820651089
C           -2.33431312190701       -5.35436944503941       -1.74831372019142
C           -3.65934892894485       -5.78261118870744       -1.64931022408349
C           -4.02608378817760       -7.19140041327265       -2.00686463347292
C           -4.61614660537327       -4.87897514429247       -1.23902977177178
C           -4.28542200780122       -3.55773512351529       -0.90511131345961
N           -5.30612960823102       -2.68813383967664       -0.56189873240202
C           -6.63892093783927       -3.19806794008237       -0.48119852015031
C           -7.45028129100517       -3.22319912296925       -1.60768016328811
C           -8.74382304774911       -3.70429478891423       -1.50124124854415
C           -9.22278740267413       -4.15441128581004       -0.28397036885119
C           -8.41778010531547       -4.13627143366831        0.85039419559159
C           -8.94059281325296       -4.64375631016712        2.15940171119274
C           -7.12160273615358       -3.65247936825356        0.73812974387184
C           -5.13155535115960       -1.34082764856404       -0.33388483360906
C           -6.24218172756325       -0.51703791587815       -0.15523710402186
C           -6.06934659734190        0.83716975134131        0.09423790203890
N           -7.18248722353213        1.66503808397371        0.27580285146487
C           -7.16913292379128        2.97168310645846       -0.22544015203111
C           -7.78233421716172        4.00765673731468        0.47878179828269
C           -7.75519938151426        5.29333861380611       -0.02587192842072
C           -7.11646051869813        5.56823992406701       -1.22286344663363
C           -6.50089013804443        4.54742250090917       -1.93904468278916
C           -5.83869040803111        4.82418648131023       -3.25571318920805
C           -6.53681928613639        3.25710312747165       -1.43495356663746
C           -8.31252777948801        1.17770338922194        0.94400699272636
C           -8.17334470201614        0.34907892324191        2.05571476121568
C           -9.29729638720220       -0.12893209373143        2.70198674816019
C          -10.56261000696180        0.21282738620139        2.25972778989511
C          -10.72009272084422        1.04318472016275        1.15392834307463
C          -12.09321186077009        1.41105738283404        0.67662230662789
C           -9.59186018287790        1.51459559839026        0.50362028453787
C           -4.78926270996059        1.38172132417515        0.16299338686204
C           -3.68051286360472        0.57371027092583       -0.05267303573417
C           -3.82659083921717       -0.80692428264368       -0.29105108455528
N           -2.40741446515929        1.12743713221762       -0.01346003481724
C           -2.32588900039395        2.53956123483158        0.03231771213598
C           -2.61582265493215        3.31583473192153       -1.08957382978288
F           -2.96714525155726        2.68894859081520       -2.22895139251865
C           -2.56362300409016        4.69640580899735       -1.07393124983980
C           -2.21026525793433        5.34484813021991        0.09674651825502
C           -1.91313018055962        4.61630387773000        1.23577247469351
C           -1.97868636607486        3.23652587187402        1.18981376428989
F           -1.69477559515462        2.53368093734512        2.30974287558991
C            9.57353234522719        1.28958969832187       -0.23560878604003
H           12.42737409836762        0.28999015412781        0.21531218286471
H           12.77147159429194        1.26916193610065       -1.20826941255592
H           12.06470863533180        2.01585519447328        0.23453996073702
H           11.38983737345697       -0.31182324859833       -2.58699925940408
H            9.12727123406774       -0.81861225194237       -3.41707837158386
H            7.14584240017984        0.02351756215020       -2.22217973048348
H            6.09156169991996        2.19343868074735        2.31415606169946
H            6.15667537459502        4.44028220846616        3.30693459643940
H            7.29320527579551        6.28876557054768        2.13693486264571
H            8.83960416717890        5.92680882584142       -1.25802326059844
H            7.95997463121291        7.09597003939483       -0.26022355380558
H            9.50562515285425        6.45758433132375        0.28906194510906
H            8.30359349847033        3.62997219888308       -1.04643050751567
H            7.16051650971203       -1.11564875128685        0.31757940785337
H            4.69414407263207        2.32809282759842       -0.06916746272447
H            1.73823688409966        5.06699706909832       -1.90182445824886
H            2.21660700617490        6.35313061916792        0.17317598812328
H            2.75999291977257        5.13513376658737        2.27071429330012
H            0.00117776478105        2.11751564227410        0.13260729032699
H           -0.06665877550749       -2.75917297719019       -0.02456946856663
H            0.80921271434120       -3.90015893304949        1.33786176557732
H            1.35509560244043       -6.23499081972272        1.75525898264330
H            3.30478433777742       -8.05816574630554        0.84906268142413
H            4.85674198019525       -7.59827338336284        1.56161517303984
H            3.41441892906550       -7.74625679066677        2.57785494474639
H            5.45747130128851       -5.41553286333962        0.97777312156154
H            6.91524937298597       -3.19568752328930        2.52667677623614
H            9.21110942680559       -4.10158535790586        2.31740726986360
H           10.06357321431377       -4.79966092797378        0.11779641873498
H            9.78924977911057       -4.34600257450374       -2.43431264039783
H            8.13702675097697       -4.41679219886768       -3.06827597826867
H            8.85604574881932       -5.83202411997201       -2.29471995519237
H            6.34429233294730       -3.69136990470253       -1.66811976232681
H           -0.97187177168531       -3.76024650165244       -1.50359123743844
H           -1.57853763676466       -6.04457400892336       -2.09469982549028
H           -3.77859824635644       -7.40133969882116       -3.03607570066429
H           -5.09186527691998       -7.37160701200552       -1.85076948441614
H           -3.46975932160764       -7.89735768198913       -1.37612187309423
H           -5.64796498989014       -5.20171468399272       -1.18005513193662
H           -7.06554665158867       -2.87117470083650       -2.54807302862527
H           -9.38187283925359       -3.72952020896965       -2.36806754063143
H          -10.23489557471351       -4.52675491050108       -0.20281868700518
H           -9.01674969364495       -5.72688103677976        2.14331027362459
H           -9.93411646986108       -4.24019006324155        2.36037751404581
H           -8.28022908683276       -4.35921195551422        2.98278022562458
H           -6.47259880440890       -3.61978961818943        1.60607699189874
H           -7.24323113929424       -0.91425695424654       -0.21146631541068
H           -8.27004780339829        3.79961090820621        1.41389431605230
H           -8.22815121006250        6.09221803714578        0.51920899236338
H           -7.09840677175878        6.57583879743656       -1.61477564090241
H           -5.02820645708644        4.11819774120296       -3.44204415853102
H           -6.56428508020380        4.70414460986868       -4.07173087784832
H           -5.45657545464916        5.83581632679657       -3.30039786216673
H           -6.06702025694763        2.45155422711809       -1.98980210437582
H           -7.18490610529441        0.09177056583969        2.40610248098762
H           -9.18183753123153       -0.76107091035710        3.56818820725098
H          -11.43489764360864       -0.15855611561301        2.77410460887092
H          -12.67043250883869        0.51515066686770        0.45539656344301
H          -12.04221786434654        2.02392658473935       -0.22238012306091
H          -12.62347163378125        1.96894954248398        1.44636208181744
H           -9.69524025082247        2.15263286438832       -0.36534878188331
H           -4.68622634632209        2.43165357888655        0.38714461112588
H           -2.80552199724643        5.24191888803524       -1.97775536060118
H           -2.17441318983961        6.42104105805494        0.11802037000395
H           -1.64103155709916        5.09663003723928        2.15467987906743
H            9.69246547682513        1.88047631441780        0.65862729180022
