  95
 
 C         -1.1829299301        2.9859265947        1.0724505302
 C         -0.7558301664        1.9772581218       -0.0093703172
 C         -0.8712058126        2.6113179729       -1.4076134108
 C          0.6896011283        1.5903259889        0.2298676961
 C          1.6632972708        2.5756680549        0.1807972202
 C          3.0113729729        2.2923563367        0.3564926723
 N          3.9567638533        3.3257085457        0.3282040631
 C          3.8932144669        4.4911688503        1.0652696683
 C          2.9516528815        4.8943748007        2.0014891922
 C          3.1399784499        6.1147493299        2.6212203008
 C          4.2406026102        6.9172464950        2.3283893149
 C          5.1924645438        6.5111481859        1.4147769781
 C          5.0249342590        5.2884750366        0.7780164691
 C          5.8021851871        4.5605792604       -0.1854243527
 C          6.9908436559        4.8271600898       -0.8520665404
 C          7.4648195042        3.8980422087       -1.7562828125
 C          6.7621500961        2.7220538957       -2.0100168466
 C          5.5776774764        2.4341992480       -1.3595849548
 C          5.1081009036        3.3536717696       -0.4325968619
 C          3.3996930129        0.9718498786        0.5483314934
 C          2.4462690879       -0.0214371560        0.5894892477
 C          1.0842016475        0.2698956208        0.4687608508
 N          0.1446470234       -0.7547180967        0.5429805832
 C          0.5779405388       -2.0658653585        0.8168402004
 C          1.1440905083       -2.3778376217        2.0545759778
 C          1.5700117856       -3.6662475748        2.3235744467
 C          1.4188168121       -4.6540373601        1.3646706301
 C          0.8621134322       -4.3499710884        0.1383489270
 C          0.4490811783       -3.0653511811       -0.1490320744
 S          0.6709722796       -5.6283517899       -1.1111734159
 O         -0.4256989007       -6.4749839828       -0.7590871132
 O          0.6263913063       -4.9781695833       -2.3936137006
 C          2.2110796162       -6.5476384990       -1.0151063818
 C          2.8424727793       -6.9410047587       -2.1815798749
 C          4.0280872601       -7.6564174172       -2.1072682432
 C          4.5811893092       -7.9619705511       -0.8723079830
 C          3.9506826727       -7.5534564384        0.2932556810
 C          2.7613725464       -6.8512558993        0.2132608999
 S          1.9355195995       -6.3347205595        1.7227230627
 O          2.9226452229       -6.2764239505        2.7675056385
 O          0.7824310860       -7.1504783901        1.9437731951
 C         -1.2134922478       -0.5148260741        0.3350130746
 C         -2.1354130792       -1.5584181808        0.4564981678
 C         -3.4812223509       -1.3549467597        0.2442742275
 C         -3.9451081661       -0.0831070786       -0.0705130027
 N         -5.3052752502        0.1548471770       -0.3043105786
 C         -6.3504777455       -0.2242326031        0.5141388355
 C         -6.3229075539       -0.8733192185        1.7400796943
 C         -7.5288489328       -1.1101644608        2.3713596615
 C         -8.7373243242       -0.7069086269        1.8074237951
 C         -8.7694420090       -0.0411920492        0.5986033357
 C         -7.5701410822        0.2085447194       -0.0553987131
 C         -7.2342138035        0.8756802171       -1.2819168761
 C         -7.9875912652        1.4883285252       -2.2746279361
 C         -7.3331316582        2.0292404320       -3.3631165767
 C         -5.9467668849        1.9514390981       -3.4769587639
 C         -5.1757418569        1.3464957465       -2.5030740484
 C         -5.8259678889        0.8218383221       -1.3951188600
 C         -3.0354718806        0.9637351738       -0.1408007044
 C         -1.6762554326        0.7746997294        0.0556572125
 H         -1.0966738950        2.5319125972        2.0579001948
 H         -2.2132776365        3.2977604208        0.9288527305
 H         -0.5551828367        3.8721924400        1.0444838125
 H         -0.5728163115        1.8906573243       -2.1666291180
 H         -0.2313691774        3.4846230221       -1.4943614908
 H         -1.8926653220        2.9212574056       -1.6088474495
 H          1.3832834367        3.5995059235       -0.0113877946
 H          2.1064680112        4.2699409626        2.2498904718
 H          2.4198764200        6.4523992393        3.3520861666
 H          4.3509130910        7.8654373351        2.8330761623
 H          6.0535112383        7.1257267752        1.1996513772
 H          7.5270972899        5.7455927992       -0.6668169113
 H          8.3881743996        4.0849872545       -2.2839813293
 H          7.1500974350        2.0211809701       -2.7345786243
 H          5.0308554166        1.5287777070       -1.5761879866
 H          4.4426812980        0.7263573574        0.6737085883
 H          2.7679664050       -1.0428352680        0.7186832236
 H          1.2452715267       -1.6022458475        2.7988537778
 H          2.0173496582       -3.9307267542        3.2686437594
 H          0.0361384684       -2.8542697447       -1.1235353555
 H          2.3930249495       -6.6734415423       -3.1249280450
 H          4.5210190505       -7.9730716676       -3.0136133661
 H          5.5052333364       -8.5166554880       -0.8160823727
 H          4.3601843897       -7.7610762745        1.2693360227
 H         -1.7994683099       -2.5493452256        0.7173184617
 H         -4.1693229987       -2.1826208775        0.3126397997
 H         -5.3904982915       -1.1750973170        2.1929121621
 H         -7.5344784049       -1.6168050501        3.3252096641
 H         -9.6587045653       -0.9130607860        2.3314272578
 H         -9.7045383810        0.2843698005        0.1683704508
 H         -9.0632148035        1.5336865540       -2.1946316562
 H         -7.9001692179        2.5116711474       -4.1452802129
 H         -5.4642140176        2.3693136984       -4.3483466212
 H         -4.1039954457        1.2712769037       -2.6107079368
 H         -3.4174699485        1.9520470876       -0.3432778134
