  104
 
 C          9.2218929209       -0.4265648275       -0.6022101399
 C          7.7417437280       -0.3384781462       -0.3667326873
 C          7.2236840169       -0.3321718065        0.9314093936
 C          8.0840388146       -0.4665320394        2.1239926523
 C          8.0405152785        0.5147099048        3.1104600443
 C          8.8236254613        0.4036600216        4.2447151675
 C          9.6506473723       -0.6942701417        4.4142788168
 C          9.6881879687       -1.6824519112        3.4449688275
 C          8.9120772452       -1.5694261302        2.3057181690
 C          5.8583293477       -0.1751390318        1.1392987717
 C          5.0047216368       -0.0090141359        0.0648353307
 N          3.6019359266        0.1709503646        0.2897264127
 C          3.2236032067        1.2659354805        1.0511863572
 O          4.0482236353        2.0490398027        1.4770562471
 C          1.7796037929        1.4186438295        1.2986781382
 C          1.3425688894        2.4489553776        2.1049584524
 C         -0.0166646877        2.5916002806        2.3789997498
 C         -0.9352010819        1.7453455105        1.8097596886
 C         -0.5351910499        0.7117316255        0.9407652723
 C         -1.4492820162       -0.1928536267        0.3153939760
 N         -2.8221889387       -0.0221027620        0.4301190142
 C         -3.4161522340        1.2348753432        0.2555553660
 C         -2.8595842441        2.1708586737       -0.6155541737
 C         -3.4504565648        3.4060954737       -0.7788633630
 C         -4.6135171570        3.7447273107       -0.0891320288
 C         -5.2399366635        5.0621949406       -0.2638230251
 C         -5.7634009791        5.7493103698        0.8294537549
 C         -6.3523292423        6.9890203784        0.6659381797
 C         -6.4334314156        7.5613007297       -0.5925133005
 C         -5.9182275685        6.8866764062       -1.6867023812
 C         -5.3240260755        5.6492261012       -1.5245231047
 C         -5.1694074786        2.7993418908        0.7715351602
 C         -4.5837468218        1.5631118168        0.9444523363
 C         -3.6466365454       -1.1559225576        0.5401895138
 C         -3.2750699210       -2.1942558054        1.3950496736
 C         -4.0697065383       -3.3163731544        1.5341364365
 C         -5.2535446187       -3.3936556733        0.8175857452
 C         -5.6306779204       -2.3488863699       -0.0397784012
 C         -4.8358000897       -1.2373250584       -0.1880979218
 C         -6.9516237624       -2.6534315527       -0.7082656833
 C         -8.0093031859       -1.6138185877       -0.3241734570
 C         -6.7998500615       -2.7268591167       -2.2304824060
 C         -7.2787316247       -4.0098052438       -0.1241698930
 C         -8.3739875529       -4.8114248051       -0.3613105421
 C         -8.4645307359       -6.0325146744        0.2940342856
 C         -7.4729436167       -6.4426132478        1.1716800204
 C         -6.3682340387       -5.6432651531        1.4160151413
 C         -6.2753021001       -4.4244532517        0.7643661971
 C         -0.9550047795       -1.2713585002       -0.4054940818
 C          0.4063830467       -1.4599051023       -0.5799326142
 C          1.3171290251       -0.5667597919       -0.0441413072
 C          0.8553777006        0.5221402678        0.7224120730
 C          2.7496440539       -0.7826653749       -0.2612589121
 O          3.1931039579       -1.7330424586       -0.8732053470
 C          5.5036597424       -0.0127689755       -1.2248954490
 C          6.8635142091       -0.1936977425       -1.4444907171
 C          7.3387970657       -0.2082931996       -2.8434144760
 C          7.1064747066        0.8874122297       -3.6684739587
 C          7.5265010930        0.8754268180       -4.9861951596
 C          8.1729396981       -0.2362748869       -5.4995577964
 C          8.3961690364       -1.3365946249       -4.6888855851
 C          7.9845478004       -1.3226576188       -3.3688334514
 H          9.5371550313       -1.4618468705       -0.7277726095
 H          9.4954685738        0.1152721824       -1.5050894171
 H          9.7676859421       -0.0108289258        0.2418292399
 H          7.3953920365        1.3704605419        2.9734254268
 H          8.7878991963        1.1751333459        5.0003426806
 H         10.2611877743       -0.7816987522        5.3011735131
 H         10.3244528767       -2.5456614826        3.5779536220
 H          8.9313245855       -2.3496760476        1.5593660464
 H          5.4674439487       -0.1796454670        2.1455285683
 H          2.0727235193        3.1216558227        2.5287245028
 H         -0.3478585332        3.3735596263        3.0452825606
 H         -1.9804613257        1.8655643133        2.0476366390
 H         -1.9603855566        1.9227575987       -1.1602434042
 H         -2.9965187350        4.1254605160       -1.4439438006
 H         -5.6877991064        5.3164994025        1.8165325757
 H         -6.7482846789        7.5125479326        1.5240319844
 H         -6.8958149704        8.5288165972       -0.7198749979
 H         -5.9818083762        7.3265891255       -2.6713781755
 H         -4.9394819299        5.1208192271       -2.3848811679
 H         -6.0804449485        3.0321346249        1.3026274667
 H         -5.0235489324        0.8425064854        1.6185408844
 H         -2.3534768422       -2.1092200242        1.9522581716
 H         -3.7720655178       -4.1123271206        2.1995155453
 H         -5.1116825190       -0.4345064897       -0.8560427904
 H         -8.1171392669       -1.5697004733        0.7576256471
 H         -7.7207068649       -0.6293841258       -0.6858261479
 H         -8.9711202536       -1.8765339911       -0.7578544373
 H         -6.0444456044       -3.4627643707       -2.4978221335
 H         -7.7423898389       -3.0150404232       -2.6895928464
 H         -6.5005072028       -1.7597652516       -2.6278609595
 H         -9.1527827049       -4.5025846681       -1.0434850115
 H         -9.3179001266       -6.6707152015        0.1173805375
 H         -7.5636987166       -7.3968309501        1.6698573778
 H         -5.5964968900       -5.9646470206        2.0995470907
 H         -1.6518946156       -1.9617706902       -0.8571518637
 H          0.7779300351       -2.2924323758       -1.1577008872
 H          4.8370450835        0.1063950091       -2.0655312297
 H          6.6045986805        1.7553992783       -3.2651056437
 H          7.3472378657        1.7351964607       -5.6157157998
 H          8.4983635375       -0.2466639305       -6.5295447782
 H          8.8916903023       -2.2098356708       -5.0881203350
 H          8.1451610017       -2.1873476276       -2.7422556456
