  86
 
 C         -7.4357658467       -4.4182161234       -2.1414744425
 C         -6.9375690603       -4.4502836302       -0.6966122989
 N         -6.7777933490       -3.1237050585       -0.1585464909
 C         -7.7692198157       -2.3847477001        0.4525210813
 C         -9.0844982785       -2.7268210581        0.7331015721
 C         -9.8755381585       -1.7852301197        1.3664282897
 C         -9.3788606134       -0.5309425330        1.7120376164
 C         -8.0693978794       -0.1830633504        1.4352412177
 C         -7.2568077882       -1.1135795320        0.8049447615
 C         -5.8868327353       -1.0953526327        0.3650075587
 C         -4.8900921361       -0.1472218174        0.4243533692
 C         -3.6229102773       -0.4362214204       -0.1152507145
 C         -2.5823062800        0.5521798387       -0.1049039677
 C         -2.9517600288        1.9593411016       -0.1205518272
 C         -2.2127978047        2.8968697196        0.6756522837
 C         -2.0771394713        4.2436737908        0.2833193640
 C         -1.3372049834        5.1297816922        1.0343928885
 C         -0.7123560701        4.7132994022        2.2027745787
 C         -0.8330005044        3.3898925468        2.6076987643
 C         -1.5638987342        2.4944649655        1.8599438840
 C         -4.0602874780        2.3776086522       -0.9298255762
 C         -4.4161750317        1.6702886541       -2.0955854823
 C         -5.5151027918        2.0363249219       -2.8401503588
 C         -6.3031665671        3.1116320845       -2.4514808247
 C         -5.9725050629        3.8210314072       -1.3036410070
 C         -4.8710368036        3.4685588856       -0.5563553240
 C         -1.2065619971        0.1877809718       -0.0761676817
 C         -0.2023071186        1.0497522477       -0.5773936358
 C          1.1247828432        0.7266869716       -0.4975630538
 C          1.5532590049       -0.4782756290        0.0897076517
 C          2.9582989342       -0.8204346328        0.1781819041
 C          3.3899396901       -2.1629493746        0.1807073248
 C          4.7247985727       -2.4892700724        0.2652788671
 C          5.6812165957       -1.4851638415        0.3677440832
 C          5.2738409409       -0.1576124589        0.3602876848
 C          3.9453895334        0.1776516400        0.2588434652
 S          6.5131896390        1.1251233960        0.4504436022
 O          5.9380702859        2.3548734632       -0.0530433586
 O          7.0742629276        1.1961932646        1.7773640460
 C          7.7733145351        0.5888802936       -0.7079115456
 C          8.3250568223        1.4824700992       -1.6086784069
 C          9.2857086767        1.0398989510       -2.5061237798
 C          9.6774137915       -0.2917953632       -2.5081734543
 C          9.1125453883       -1.1860937118       -1.6114264378
 C          8.1656063500       -0.7367619035       -0.7074835779
 S          7.4106466697       -1.8685201979        0.4603430901
 O          7.6120650732       -3.2175063529       -0.0262103937
 O          7.9264041057       -1.5985542900        1.7812176991
 C          0.5601768394       -1.3375678642        0.5954357553
 C         -0.7685567500       -1.0198581707        0.5177916995
 C         -3.4161597304       -1.7024235486       -0.7190159057
 C         -4.4025506350       -2.6536873653       -0.7911258956
 C         -5.6490147344       -2.3620665066       -0.2355022754
 H         -6.7293578000       -3.8856765531       -2.7739925622
 H         -7.5476787182       -5.4317355976       -2.5168597473
 H         -8.3978940115       -3.9147409447       -2.1997846304
 H         -7.6468204016       -4.9940408042       -0.0674498786
 H         -5.9738861266       -4.9628327165       -0.6436680932
 H         -9.4897623636       -3.6909294747        0.4668470078
 H        -10.9032480333       -2.0270671016        1.5950290471
 H        -10.0296472466        0.1780018477        2.2023605319
 H         -7.6849824461        0.7903505661        1.7004808441
 H         -5.0672765595        0.8001878436        0.9086211216
 H         -2.5224047965        4.5691413298       -0.6455757876
 H         -1.2341527605        6.1542704188        0.7058257379
 H         -0.1321036211        5.4108971712        2.7881967641
 H         -0.3513666869        3.0605891461        3.5173778897
 H         -1.6685049276        1.4739703718        2.1969584620
 H         -3.7949567520        0.8498057018       -2.4221310631
 H         -5.7627532624        1.4849357437       -3.7359498633
 H         -7.1674821515        3.3929852272       -3.0344045067
 H         -6.5893940629        4.6505342196       -0.9880323097
 H         -4.6490585200        4.0001539262        0.3575880347
 H         -0.4979690625        1.9641213764       -1.0696551337
 H          1.8561088708        1.3936461319       -0.9285201570
 H          2.6627250161       -2.9532280631        0.0840090587
 H          5.0639119240       -3.5131695252        0.2459255100
 H          3.6901070645        1.2253581564        0.2653072310
 H          7.9836930640        2.5055992295       -1.5907141356
 H          9.7236283115        1.7342399296       -3.2061381956
 H         10.4202732690       -0.6365673784       -3.2104988632
 H          9.3812724345       -2.2306747293       -1.5944696334
 H          0.8540802438       -2.2444569277        1.1017048745
 H         -1.4985033442       -1.6728226876        0.9731330410
 H         -2.4626941861       -1.8975733795       -1.1860660428
 H         -4.2134330108       -3.5948028873       -1.2843926413
