  51
 
 C          5.0168254529       -0.1968030957       -0.0581412116
 C          3.6927512509       -0.9009943902       -0.0464228751
 C          3.6179576730       -2.2877957858       -0.0137825182
 C          2.3933961495       -2.9221342366        0.0072818250
 C          1.2100387261       -2.1846560726        0.0043591054
 C          1.2640206065       -0.7885059594       -0.0137218166
 C          2.5080290124       -0.1772212510       -0.0440010022
 C          0.0000137396        0.0642336106        0.0000491929
 C          0.0798236266        0.8933971183        1.2771940607
 C         -0.4169339578        0.3662127653        2.4644180048
 C         -0.3037665022        1.0615421515        3.6550377529
 C          0.3202125725        2.2967567370        3.6842633274
 C          0.8356920279        2.8233925419        2.5129116506
 C          0.7208906116        2.1266848960        1.3223947222
 C         -0.0797777407        0.8938220299       -1.2768273995
 C         -0.7208902835        2.1271001905       -1.3216403296
 C         -0.8356936925        2.8241891067       -2.5119334578
 C         -0.3201716865        2.2979527382       -3.6834461898
 C          0.3038553047        1.0627536661       -3.6546091336
 C          0.4170293202        0.3670456109       -2.4642112903
 C         -1.2640286184       -0.7884582483        0.0135041988
 C         -2.5080079251       -0.1771322952        0.0442169734
 C         -3.6927621808       -0.9008505877        0.0462344507
 C         -5.0168130671       -0.1966236135        0.0583546900
 C         -3.6180337700       -2.2876369059        0.0127588515
 C         -2.3935044656       -2.9220204253       -0.0087232236
 C         -1.2101124084       -2.1845982081       -0.0054218458
 N         -0.0000514184       -2.8387030325       -0.0007717853
 H          5.3173692114        0.0517825713        0.9609375438
 H          5.7880913915       -0.8285698486       -0.4931670654
 H          4.9570799677        0.7296224892       -0.6254738816
 H          4.5241991642       -2.8764941861       -0.0113718818
 H          2.3388954747       -4.0020999310        0.0215079465
 H          2.5600727670        0.9003064778       -0.0751146346
 H         -0.9020319344       -0.5994141650        2.4584892593
 H         -0.7030346806        0.6340568017        4.5637810469
 H          0.4077270386        2.8423696799        4.6126623355
 H          1.3321939118        3.7834904451        2.5229407829
 H          1.1291071625        2.5601029702        0.4211604937
 H         -1.1291472495        2.5602091470       -0.4202763014
 H         -1.3322288231        3.7842726575       -2.5216620425
 H         -0.4076847430        2.8438647070       -4.6116695641
 H          0.7031602568        0.6355789387       -4.5634826752
 H          0.9021709054       -0.5985608724       -2.4585809890
 H         -2.5599962056        0.9003792616        0.0759815842
 H         -5.7880285619       -0.8284827775        0.4933383629
 H         -4.9569544862        0.7296563712        0.6259106653
 H         -5.3175099695        0.0522199262       -0.9606169269
 H         -4.5243050336       -2.8762876708        0.0100225563
 H         -2.3390545627       -4.0019800477       -0.0235929707
 H         -0.0000743588       -3.8469720002       -0.0010463717
