93

C     -3.926778   -4.257876    0.044161
C     -4.240611   -3.016807    0.919278
C     -4.984221   -3.457043    2.208200
C     -5.169158   -2.090693    0.122915
C     -6.441769   -2.560083   -0.291796
C     -7.333013   -1.752208   -0.993813
C     -6.975392   -0.450783   -1.295257
C     -5.724975    0.028696   -0.902178
C     -4.791791   -0.775434   -0.203165
N     -3.502972   -0.256400    0.178059
C     -3.118849    1.062888   -0.243178
C     -2.746682    1.303522   -1.577393
C     -2.392405    2.588779   -1.993417
C     -2.379971    3.635724   -1.067564
C     -2.000099    4.994132   -1.521428
O     -2.502951    5.460219   -2.539948
C     -1.011919    5.775204   -0.731644
C     -1.026087    7.163304   -0.778131
C     -0.100372    7.857366   -0.002569
C      0.815104    7.145465    0.769629
C      0.779676    5.757330    0.719557
C      1.761571    4.960999    1.501645
O      2.248840    5.419473    2.531435
C      2.164692    3.608685    1.036448
C      2.394789    3.347697   -0.320843
C      2.822860    2.081416   -0.725841
C      3.017960    1.061719    0.218338
N      3.479830   -0.234662   -0.196472
C      2.565390   -1.155789   -0.822515
C      1.226504   -0.788480   -1.094100
C      0.315839   -1.667323   -1.683593
C      0.718736   -2.946187   -2.018789
C      2.029837   -3.336445   -1.762338
C      2.971494   -2.459149   -1.165667
C      4.396876   -2.954651   -0.887012
C      5.021568   -3.416765   -2.230600
C      4.310259   -4.154437    0.090513
C      5.318839   -1.896121   -0.267473
C      6.673470   -2.216195    0.003460
C      7.557745   -1.284978    0.542114
C      7.110187   -0.006628    0.820498
C      5.778776    0.326711    0.568525
C      4.853019   -0.604449    0.037805
C      2.787101    1.332708    1.577578
C      2.374417    2.603478    1.986709
N     -0.123030    5.056914   -0.005709
C     -2.755797    3.410098    0.262464
C     -3.130567    2.128938    0.669659
C     -2.590796   -1.049903    0.963354
C     -1.336342   -0.536662    1.371544
C     -0.427967   -1.290647    2.116179
C     -0.747133   -2.586821    2.474130
C     -1.973231   -3.118728    2.086206
C     -2.911561   -2.369889    1.331077
H     -3.303168   -4.990726    0.567838
H     -3.393624   -3.969941   -0.870928
H     -4.833404   -4.792702   -0.260042
H     -5.217446   -2.591806    2.841634
H     -4.396136   -4.155234    2.813867
H     -5.928905   -3.967863    1.993243
H     -6.758141   -3.575715   -0.063265
H     -8.302826   -2.138857   -1.294028
H     -7.661776    0.197463   -1.832903
H     -5.496757    1.061817   -1.151370
H     -2.745105    0.484475   -2.292731
H     -2.120756    2.768667   -3.030896
H     -1.749146    7.691256   -1.392662
H     -0.091503    8.944577   -0.000800
H      1.547954    7.660594    1.383796
H      2.262539    4.120991   -1.072772
H      3.013844    1.884387   -1.778215
H      0.851018    0.197251   -0.834779
H     -0.708513   -1.350837   -1.859645
H      0.015937   -3.641812   -2.468805
H      2.311614   -4.352709   -2.029140
H      4.436945   -4.205407   -2.716079
H      6.029865   -3.824993   -2.105296
H      5.092925   -2.581256   -2.938011
H      5.293681   -4.584075    0.311732
H      3.702126   -4.973830   -0.309362
H      3.863083   -3.851972    1.045955
H      7.060168   -3.210588   -0.209585
H      8.591261   -1.558828    0.734797
H      7.788287    0.736196    1.231590
H      5.478702    1.346801    0.792692
H      2.947437    0.551982    2.317472
H      2.220052    2.807349    3.043947
H     -2.770660    4.220321    0.985612
H     -3.431857    1.952981    1.699742
H     -1.024934    0.467829    1.099558
H      0.531496   -0.864870    2.396065
H     -0.043696   -3.185814    3.045389
H     -2.189519   -4.144331    2.377333
