56
 xtb: 6.7.1 (edcfbbe)
O            3.11474916037973        3.58375263195842        1.30500194524329
S            2.95122102080143        2.88665898565140        0.06257235896425
O            3.10914503782234        3.70239051562646       -1.14453131360166
C            4.07567806935531        1.51442511264502       -0.01913803088919
C            5.42517934475799        1.82258255389795       -0.04991702413541
C            6.37301759388430        0.81907578107310       -0.08529136843529
C            5.94147822053444       -0.50099912127455       -0.08661829825375
C            4.59798779926461       -0.80968998025006       -0.05671533384791
C            3.61791551889066        0.19806296299196       -0.02289364101134
N            2.27614853778727       -0.14962447852636        0.00122894297362
C            1.96407447064645       -1.55347810428624        0.00707887469394
C            1.78275634706136       -2.22524109436384       -1.19502041801714
C            1.48257542605538       -3.57702110752842       -1.18307726833511
C            1.36408795789281       -4.25260309023818        0.02137715307292
C            1.54327175235675       -3.57770339096183        1.21851375592713
C            1.84267987502986       -2.22560813892212        1.21613934540018
C            1.21332160271194        0.72710053916024        0.00674828875572
C           -0.10142572253242        0.22611164884329        0.00492371194999
C           -1.19191007036975        1.07405516128324        0.00381041510381
N           -2.49915072906232        0.50429435660319        0.00049469965518
C           -3.11701391546357        0.33208308850458       -1.23730459826135
C           -2.45662771440745        0.72555184642387       -2.40329201538094
C           -3.03513085445459        0.57142981618590       -3.65112016109831
C           -4.29988542841707        0.02725767279094       -3.77278642035003
C           -4.96979401611375       -0.37206935730925       -2.62944627041684
C           -4.38641411689546       -0.23434657184413       -1.38023235506026
S           -5.32011096221752       -0.85449994177360       -0.01059392549262
C           -4.40641463130133       -0.20644913135536        1.36805697651831
C           -5.00776606244527       -0.31940074792515        2.61121736023563
C           -4.35345859916591        0.10055014977168        3.75621313398656
C           -3.08530766049658        0.63851209001312        3.64247171060045
C           -2.48866108919073        0.76756008325987        2.40036380919593
C           -3.13421688445485        0.35555190260630        1.23248455542310
C           -1.02703123355840        2.45919563145856        0.00480043577577
C            0.25668950784180        2.96313555620482        0.01075901107286
C            1.35068729635998        2.11604323696918        0.01244937832752
H            5.69580612508245        2.86745885331351       -0.01363168783974
H            7.42418346777616        1.05757515145680       -0.03097894703172
H            6.66377415113926       -1.30283829440291       -0.03107247741420
H            4.29625395698924       -1.84410478518759       -0.01606981072118
H            1.91644151551587       -1.68838029634851       -2.13187533240559
H            1.38006046161178       -4.10186806129901       -2.13017765929342
H            1.13079244834807       -5.30643184209840        0.00868080457436
H            1.41114770323891       -4.10145479764422        2.14340658210342
H            1.94703077677402       -1.68786917078822        2.13685615871785
H           -0.27839553849745       -0.83736028886561        0.00131470622149
H           -1.48245848288724        1.17231273406359       -2.33363467189522
H           -2.50986419445241        0.91296058500693       -4.52494012036760
H           -4.78669339374803       -0.05922536355156       -4.73239081708757
H           -5.96942943246242       -0.78990509895967       -2.68265543177353
H           -5.98049313328525       -0.77310871448657        2.67632336123339
H           -4.80564139213302       -0.03093659410743        4.72646312054912
H           -2.52698985795391        0.93773633155049        4.52257673358088
H           -1.49054579948209        1.18346314816200        2.33403075089264
H           -1.88609466131404        3.11060045958619       -0.00001051805248
H            0.44877799604182        4.02478157726528        0.00287421508252
