  112
 
 C          6.5544565932        3.7898240364       -2.5346450619
 C          5.4540231433        4.0298504962       -3.3405416644
 C          4.3121506956        3.2620262122       -3.2064130275
 C          4.2530292452        2.2361876329       -2.2658718800
 C          3.0354976917        1.4338401758       -2.0828190991
 C          1.7829466135        2.0600994516       -2.1003059338
 C          0.6220557962        1.3704998155       -1.8187197256
 C          0.7281459805        0.0231067389       -1.5105681915
 C          1.9653896165       -0.6500488601       -1.5950161425
 C          3.1216057294        0.0632763395       -1.8625237166
 C          1.6901656452       -2.0310457898       -1.3035162004
 C          2.4900390798       -3.1553275920       -1.2018197050
 C          1.9155794338       -4.3652735106       -0.8272243883
 C          2.7614838500       -5.5554137108       -0.6508733773
 C          3.7962335172       -5.8339050514       -1.5412605195
 C          4.6108412593       -6.9344173612       -1.3526880863
 C          4.4111853318       -7.7722167790       -0.2680472492
 C          3.3867040044       -7.5049669983        0.6246385575
 C          2.5670346424       -6.4086053542        0.4340168945
 C          0.5380598029       -4.4335371722       -0.5804230823
 C         -0.2790439880       -3.3261011999       -0.6820562947
 C          0.3049029644       -2.1188944642       -1.0339836117
 N         -0.2664924072       -0.8658014363       -1.1481046506
 C         -1.4829830406       -0.4630172251       -0.5687655343
 C         -2.6903243973       -0.9373763843       -1.0614828824
 C         -3.9037477954       -0.5067349802       -0.5339404491
 N         -5.0757428124       -0.9467380536       -0.9891374995
 C         -6.2289498253       -0.5064439610       -0.4986835263
 C         -7.4745496512       -0.9860391402       -0.9971363898
 C         -7.5244508867       -1.9425882104       -2.0257134993
 C         -8.7438813542       -2.3803980074       -2.4757829932
 C         -9.9005591409       -1.8512336609       -1.8867038586
 N         -9.8792729145       -0.9604549845       -0.9301926020
 C         -8.7063508248       -0.5185238900       -0.4753335102
 C         -8.6967163455        0.4646112565        0.5791478905
 N         -9.8611389232        0.9020677567        1.0594677532
 C         -9.8650033054        1.7928428168        2.0162073531
 C         -8.6978094360        2.3265204924        2.5798999978
 C         -7.4867967980        1.8933261639        2.1033835599
 C         -7.4556412263        0.9368643741        1.0740065527
 C         -6.2193198099        0.4618688336        0.5486507544
 N         -5.0574059049        0.9065857411        1.0138504134
 C         -3.8938933621        0.4707582311        0.5333566659
 C         -2.6708190677        0.9060076911        1.0341419179
 C         -1.4726781720        0.4356304137        0.5155484525
 N         -0.2460958115        0.8445808002        1.0696212767
 C          0.7536262904       -0.0336441529        1.4408589147
 C          0.6587470767       -1.3799786614        1.7584548993
 C          1.8203840762       -2.0492809264        2.0811605226
 C          3.0649545817       -1.4056938783        2.1079961925
 C          4.2792519703       -2.1798909694        2.4023026529
 C          5.2970549445       -1.6540755179        3.1956264054
 C          6.4360125212       -2.3919091488        3.4596532378
 C          6.5823849006       -3.6644769575        2.9324118116
 C          5.5784894217       -4.1970469205        2.1406242862
 C          4.4370078941       -3.4628699378        1.8810863774
 C          3.1388707080       -0.0395642699        1.8557318220
 C          1.9838998293        0.6521497132        1.5318033301
 C          1.7030284057        2.0249050644        1.2069342132
 C          2.4981300762        3.1485545146        1.0665709260
 C          1.9130138271        4.3504439657        0.6837499264
 C          2.7448069163        5.5451523567        0.4808653743
 C          2.3201188759        6.8009720814        0.9091722516
 C          3.1081125987        7.9179043847        0.7031500533
 C          4.3290092217        7.8010260389        0.0594765119
 C          4.7597389046        6.5575726130       -0.3722029884
 C          3.9774901186        5.4383261457       -0.1602265649
 C          0.5305826233        4.4111549103        0.4633700857
 C         -0.2789730670        3.3000689562        0.5829347355
 C          0.3157128767        2.1006423930        0.9438194553
 C          5.3684022828        2.0008314480       -1.4634336664
 C          6.5077885876        2.7725730232       -1.5956330616
 H          7.4451283552        4.3921593198       -2.6377126751
 H          5.4856404058        4.8199875990       -4.0766110582
 H          3.4625689932        3.4465143215       -3.8474140214
 H          1.7292507769        3.1203870565       -2.2960798857
 H         -0.3365765608        1.8673643952       -1.8253807527
 H          4.0757834369       -0.4398593100       -1.9041436235
 H          3.5533989313       -3.0824793261       -1.3732560761
 H          3.9488760941       -5.1915086684       -2.3963211968
 H          5.4057946460       -7.1403725922       -2.0548587063
 H          5.0513399551       -8.6292378987       -0.1187366313
 H          3.2288157093       -8.1514619736        1.4758261114
 H          1.7823798635       -6.1959050532        1.1460716118
 H          0.1029640910       -5.3857780449       -0.3149775747
 H         -1.3373752635       -3.3966958380       -0.4790437670
 H         -2.7005313031       -1.6293705520       -1.8886560519
 H         -6.5931180228       -2.3081542582       -2.4335895370
 H         -8.8202198057       -3.1143748658       -3.2627561258
 H        -10.8824860995       -2.1700099937       -2.2109740280
 H        -10.8408514408        2.1077939183        2.3618574571
 H         -8.7597967840        3.0602747797        3.3683408278
 H         -6.5482080526        2.2624955628        2.4908700142
 H         -2.6652910300        1.5984337442        1.8610144896
 H         -0.2944047040       -1.8875361968        1.7561493528
 H          1.7691347030       -3.0974532762        2.3335886903
 H          5.1836178617       -0.6696917614        3.6264617614
 H          7.2134596587       -1.9734777456        4.0827297206
 H          7.4741760910       -4.2377793139        3.1387960387
 H          5.6817070285       -5.1872035472        1.7199173438
 H          3.6672727087       -3.8794106479        1.2504550442
 H          4.0878144376        0.4739818672        1.8878788421
 H          3.5593475337        3.0935775385        1.2552109336
 H          1.3758856925        6.8970914383        1.4256776240
 H          2.7694063518        8.8846792109        1.0469690377
 H          4.9411797032        8.6756794272       -0.1043490248
 H          5.7079015188        6.4561964193       -0.8799445965
 H          4.3120470971        4.4752828242       -0.5149562119
 H          0.0929754526        5.3498679575        0.1571251681
 H         -1.3381632765        3.3595498367        0.3803329005
 H          5.3279344798        1.2202641981       -0.7170665479
 H          7.3614125225        2.5837797284       -0.9605088370
