  115
 
 O        -11.1962483959       -1.9671722490        1.2324679485
 P         -9.9172164232       -1.9719022761        0.5119165526
 C         -9.3347812911       -3.6376391423        0.0731769419
 C        -10.1014851057       -4.7102601414        0.5048177003
 C         -9.7046452452       -6.0044176299        0.2178243978
 C         -8.5394573292       -6.2240156023       -0.4982357572
 C         -7.7718765185       -5.1518467318       -0.9279757037
 C         -8.1649560310       -3.8571607416       -0.6439550908
 C         -9.9394126273       -0.9936304616       -1.0268491929
 C         -9.9429737520        0.3885457738       -0.8996958979
 C         -9.9997198051        1.1866970840       -2.0267532445
 C        -10.0618360724        0.6027596115       -3.2822205298
 C        -10.0773310594       -0.7762405218       -3.4081549055
 C        -10.0178664923       -1.5776072681       -2.2808517297
 C         -8.5681250969       -1.2312566573        1.4836016402
 C         -8.7244629893       -1.1042543384        2.8570445436
 C         -7.7386114873       -0.5316474141        3.6525996915
 C         -6.5631925069       -0.0569473092        3.1005994503
 C         -6.3848239095       -0.1665462620        1.7266983554
 C         -7.3868179074       -0.7589636219        0.9343214253
 O         -7.0460483511       -0.7793964447       -0.3803122390
 C         -5.8198927959       -0.1912302931       -0.4648740195
 C         -5.0800428195        0.0128336291       -1.6147145715
 C         -3.8486082222        0.6243818181       -1.4765229616
 C         -3.3551403895        1.0327724512       -0.2303952932
 C         -2.0375229804        1.6801621436       -0.1403213641
 C         -0.9569161878        1.2062212789       -0.8801729263
 C          0.2802559963        1.8118204882       -0.7909127951
 C          0.4755905059        2.9096077822        0.0399810481
 C          1.8181510567        3.6069487268        0.0719586107
 C          2.9783942776        2.6478281140        0.0017898551
 C          4.1638134841        2.9742332098       -0.6795816802
 C          5.2301299404        2.1251762448       -0.6985837130
 C          5.2182244146        0.8701856763       -0.0011998452
 C          6.3106128403       -0.0096051967       -0.0189239218
 C          6.4186275228       -1.1304682943        0.8854820389
 C          7.4686545725       -1.9859392922        0.8581863318
 C          8.5365018071       -1.8103625902       -0.0632098650
 N          9.6083320433       -2.6769830910       -0.0836589311
 C          9.5404920622       -4.0570006683        0.0177994378
 C          8.4289913574       -4.8859932004        0.0797090881
 C          8.6407432783       -6.2511143984        0.1438067956
 C          9.9270209039       -6.7879377513        0.1317486341
 C         11.0373966261       -5.9713488824        0.0275945988
 C         10.8493501447       -4.5984690205       -0.0393363805
 C         11.7454221278       -3.4870931908       -0.1868735231
 C         13.1255616380       -3.3823225976       -0.2809957012
 C         13.6895716967       -2.1239788052       -0.3761278841
 C         12.8955495291       -0.9786456252       -0.3525867479
 C         11.5179959961       -1.0585303680       -0.2606043671
 C         10.9412115597       -2.3198750639       -0.2073905224
 C          8.4636239907       -0.7112478502       -0.9614710558
 C          7.4080808846        0.1377031438       -0.9462211263
 C          4.0100188946        0.5820965172        0.7187330990
 C          2.9452844759        1.4315360810        0.7107031342
 C          1.8354733793        4.6523623627       -1.0272109676
 C          1.6543725302        4.4772107090       -2.3820755046
 C          1.7020863016        5.5914813528       -3.2092420739
 C          1.9235189893        6.8562298032       -2.6856833101
 C          2.0998753863        7.0389670947       -1.3238615866
 C          2.0534919147        5.9307190492       -0.4937997748
 C          2.1958539781        5.8133400867        0.9472222885
 C          2.4352285470        6.7733110523        1.9168082891
 C          2.5157112680        6.3749774367        3.2409190707
 C          2.3618761398        5.0413015013        3.5910168775
 C          2.1268687403        4.0740229214        2.6242166383
 C          2.0384232919        4.4656666374        1.3047940346
 C         -0.6024662997        3.3930174525        0.7696132455
 C         -1.8390267208        2.7826595009        0.6863918897
 C         -4.1123037833        0.8263121257        0.9162439051
 C         -5.3486351902        0.2095062615        0.8006408429
 H        -11.0066746119       -4.5077263976        1.0591138830
 H        -10.3017479135       -6.8407538074        0.5508070094
 H         -8.2269657815       -7.2332209614       -0.7241799590
 H         -6.8643993831       -5.3283902298       -1.4874449512
 H         -7.5770430110       -3.0168701115       -0.9813112789
 H         -9.9003589335        0.8260667063        0.0896516826
 H         -9.9948490429        2.2627632017       -1.9296059735
 H        -10.1029860243        1.2251781054       -4.1643025877
 H        -10.1351301145       -1.2289039491       -4.3876436877
 H        -10.0298984285       -2.6551164359       -2.3718780307
 H         -9.6496723830       -1.4543825290        3.2910204115
 H         -7.8992174484       -0.4519653048        4.7172854936
 H         -5.8001532770        0.3942868369        3.7160710753
 H         -5.4580354777       -0.2908728172       -2.5779344924
 H         -3.2546993183        0.8136752897       -2.3579162274
 H         -1.0833863832        0.3415547893       -1.5154830576
 H          1.1095841449        1.4213175747       -1.3633999019
 H          4.2246941770        3.9178116087       -1.2031650859
 H          6.1202562211        2.4284613712       -1.2257790056
 H          5.6681383801       -1.2601588214        1.6479678273
 H          7.5461727640       -2.7760644679        1.5907779567
 H          7.4274680800       -4.4854883829        0.0585423677
 H          7.7910586175       -6.9150079344        0.1964684882
 H         10.0525244771       -7.8588241078        0.1881375552
 H         12.0319406093       -6.3893585724       -0.0088339460
 H         13.7429277079       -4.2677443227       -0.2721358703
 H         14.7616176132       -2.0214631725       -0.4532549667
 H         13.3658028872       -0.0079984380       -0.3991667052
 H         10.9176082589       -0.1635348726       -0.2117042727
 H          9.2348106086       -0.6073900157       -1.7107682370
 H          7.3600490790        0.9143222663       -1.6918853134
 H          3.9230814064       -0.3487395234        1.2558402638
 H          2.0458304172        1.1635019378        1.2475342612
 H          1.4811668145        3.4948182660       -2.7957160651
 H          1.5648593597        5.4710258356       -4.2738777867
 H          1.9571335247        7.7087051344       -3.3485173680
 H          2.2695293224        8.0253128234       -0.9182437698
 H          2.5567205567        7.8116555966        1.6459580710
 H          2.7011418363        7.1097865545        4.0108052682
 H          2.4264114359        4.7516127111        4.6296312416
 H          2.0110949833        3.0376701838        2.9042686121
 H         -0.4737747908        4.2550068809        1.4081203184
 H         -2.6689526639        3.1808432831        1.2518984558
 H         -3.7370293052        1.1217848578        1.8840134752
