  120
 
 C         -2.5442348704       -5.8707716313        1.3861481978
 C         -1.4186962385       -4.9364510541        1.0598020498
 C         -0.1086400932       -5.4213312484        0.9936811156
 C          0.9538351869       -4.5825659593        0.6894304496
 C          0.6904476381       -3.2543347489        0.4100140463
 C         -0.6353769872       -2.7220180871        0.5047913439
 C         -1.6744668999       -3.5944954148        0.8381567556
 C         -0.5417018415       -1.3145134423        0.3186523132
 C         -1.4453866516       -0.2234231035        0.2070342862
 C         -0.8492655066        1.0278857068        0.1950115851
 C          0.5411963488        1.3170463230        0.3142047789
 C          1.4448521629        0.2256101918        0.2059283946
 C          0.8487309194       -1.0257237075        0.1982195681
 N          1.5563754574       -2.2093727869        0.1403580128
 C          2.8652046804       -2.2114684494       -0.2939768563
 C          3.4899205474       -3.3591355603       -0.7876984701
 C          4.8063976393       -3.3366340370       -1.1941167339
 C          5.5547903032       -2.1642096736       -1.1374274833
 C          7.0162448021       -2.0837311152       -1.5431549929
 C          7.5908248543       -3.4471287351       -1.9395051009
 C          7.1483348361       -1.1357002378       -2.7448276775
 C          7.8357641801       -1.5425553521       -0.3619345962
 C          4.8984649080       -1.0121965233       -0.7161494804
 C          3.5724137289       -0.9990260783       -0.3179845966
 C          2.9383940849        0.3221858483        0.1005452527
 C          3.6445455806        0.7360412772        1.3834056304
 C          3.5228729892        0.1931136640        2.6411505395
 C          4.3343400764        0.6861996269        3.6573278905
 C          5.2535427047        1.6939446563        3.4049253244
 C          5.3766813311        2.2454504512        2.1399471644
 C          4.5639776190        1.7662786040        1.1231707098
 C          4.4231250459        2.1757419889       -0.2655070509
 C          5.0565880818        3.1696942603       -0.9962592939
 C          4.6641052068        3.3799584355       -2.3084534549
 C          3.6625594170        2.6135631620       -2.8854957641
 C          3.0370933406        1.6017046488       -2.1647496969
 C          3.4183717493        1.3935406126       -0.8603211751
 C          0.6349735422        2.7251800437        0.4954655082
 C          1.6742002783        3.5987096224        0.8256370991
 C          1.4185859576        4.9414363003        1.0426756838
 C          2.5442125336        5.8768555325        1.3655341231
 C          0.1085325734        5.4261617755        0.9752171423
 C         -0.9540695179        4.5864225349        0.6741536889
 C         -0.6908565419        3.2572116268        0.3992334606
 N         -1.5568831608        2.2113656695        0.1333202546
 C         -2.8659226142        2.2120213198       -0.3004033511
 C         -3.4909141241        3.3580592718       -0.7975557282
 C         -4.8076128266        3.3342482183       -1.2031744336
 C         -5.5560007527        2.1620351272       -1.1422051894
 C         -7.0177018780        2.0802719496       -1.5467816450
 C         -7.8365671884        1.5437137268       -0.3630030251
 C         -7.5922798063        3.4422647603       -1.9479296901
 C         -7.1507147465        1.1277535306       -2.7447986872
 C         -4.8994489173        1.0114096287       -0.7175064307
 C         -3.5731639134        0.9995153943       -0.3200610906
 C         -2.9389345746       -0.3204469727        0.1020983623
 C         -3.6450335745       -0.7310838397        1.3860235405
 C         -3.5235852956       -0.1848209714        2.6423226543
 C         -4.3350682039       -0.6753450563        3.6597703512
 C         -5.2540653439       -1.6839526632        3.4099546951
 C         -5.3769997694       -2.2388407771        2.1464612544
 C         -4.5642695276       -1.7622369409        1.1284250220
 C         -4.4232555375       -2.1753406506       -0.2590793693
 C         -5.0564602035       -3.1714024397       -0.9872795933
 C         -4.6639351766       -3.3849764405       -2.2989008843
 C         -3.6625704437       -2.6198369603       -2.8779784877
 C         -3.0373304767       -1.6059482020       -2.1598401359
 C         -3.4186587548       -1.3944616781       -0.8559762838
 H         -2.2040699859       -6.6829766573        2.0252153107
 H         -3.3538433713       -5.3416219922        1.8833230980
 H         -2.9394289094       -6.3075140893        0.4675083120
 H          0.0854633819       -6.4610059717        1.2115331175
 H          1.9590526001       -4.9705334067        0.7258323536
 H         -2.6765408473       -3.2263771428        0.9560340261
 H          2.9235822274       -4.2686991575       -0.8921118535
 H          5.2377333889       -4.2511424667       -1.5657308521
 H          7.0786863412       -3.8503490710       -2.8100754995
 H          7.5145852830       -4.1564610831       -1.1185001345
 H          8.6433193277       -3.3365391279       -2.1923488100
 H          8.1865584166       -1.0810927584       -3.0652348084
 H          6.8141962111       -0.1320508089       -2.4961045631
 H          6.5474650792       -1.4971751780       -3.5771043172
 H          8.8899435766       -1.5009634654       -0.6275685155
 H          7.7226596510       -2.1917896861        0.5042137001
 H          7.5163014909       -0.5428314038       -0.0808189807
 H          5.4389881096       -0.0794600476       -0.7024779364
 H          2.8099551256       -0.5946882067        2.8398821293
 H          4.2491983206        0.2764960244        4.6532658035
 H          5.8787324611        2.0568783561        4.2082617851
 H          6.0884000258        3.0359821780        1.9509495515
 H          5.8348885248        3.7723897679       -0.5513498455
 H          5.1431716112        4.1544422910       -2.8904505003
 H          3.3676527514        2.8006407601       -3.9077539611
 H          2.2643346356        0.9976022026       -2.6186593981
 H          2.6762545281        3.2309085844        0.9446360438
 H          3.3545074400        5.3491517020        1.8631101241
 H          2.9382637761        6.3115113236        0.4454153506
 H          2.2044928237        6.6904978949        2.0030142485
 H         -0.0854491029        6.4665918367        1.1895447200
 H         -1.9592406881        4.9745996483        0.7095233220
 H         -2.9246430503        4.2672704404       -0.9053084779
 H         -5.2391119726        4.2475269930       -1.5776089258
 H         -8.8908703644        1.5009028024       -0.6279465406
 H         -7.5167844891        0.5451872295       -0.0780103599
 H         -7.7231321137        2.1964518949        0.5004630381
 H         -7.5156608403        4.1546201179       -1.1295818282
 H         -7.0804186379        3.8422155067       -2.8201704291
 H         -8.6448813192        3.3308508234       -2.1999617799
 H         -8.1891643143        1.0720557407       -3.0642894882
 H         -6.5503789708        1.4860441508       -3.5788360567
 H         -6.8165164373        0.1250041403       -2.4925614034
 H         -5.4399823182        0.0787312686       -0.7004282153
 H         -2.8108660669        0.6036594999        2.8390428319
 H         -4.2500808972       -0.2629847328        4.6546183436
 H         -5.8792341447       -2.0448789011        4.2142117277
 H         -6.0885137119       -3.0300413386        1.9594992281
 H         -5.8345589537       -3.7731596541       -0.5407561769
 H         -5.1427685777       -4.1611392963       -2.8788502591
 H         -3.3676164466       -2.8094936805       -3.8997428281
 H         -2.2647449102       -1.0028217292       -2.6153388363
