  92
 
 C         -8.9627899204       -2.6025927552       -0.5725511291
 C         -7.7464797189       -2.5454013921        0.0881850142
 C         -7.1163050814       -1.3337995870        0.2928584583
 C         -7.6942543461       -0.1532935071       -0.1752994037
 N         -7.0551376519        1.0769913628        0.0194922944
 C         -7.8073212736        2.2267911971        0.2817618350
 C         -7.4172826048        3.4592309085       -0.2425667154
 C         -8.1589741798        4.5940975650        0.0208326680
 C         -9.3016180319        4.5209075925        0.8006519344
 C         -9.6954965978        3.2988942480        1.3209596935
 C         -8.9559449065        2.1596862662        1.0702553791
 C         -5.6606263746        1.1468188258       -0.0302011870
 C         -4.9548351791        1.9942265962        0.8248869008
 C         -3.5768602256        2.0218588034        0.7979912470
 C         -2.8583861489        1.1978878264       -0.0674717319
 C         -1.3961741157        1.1696590737       -0.0320083349
 C         -0.6339345997        2.3095421363        0.0800743578
 C          0.7640554156        2.2625316949        0.1033131555
 C          1.4614226269        1.0777020309        0.0170992593
 C          2.9255183257        1.0507688376        0.0239545229
 C          3.6414186124        1.8966523152        0.8715884679
 C          5.0193265389        1.8863911762        0.8901863223
 C          5.7305592375        1.0251389708        0.0538371547
 N          7.1285369779        1.0126519286        0.0695714008
 C          7.8410464326        0.8329278672       -1.1207096991
 C          9.0260562886        0.0972266646       -1.1327555307
 C          9.7300181377       -0.0696400040       -2.3092763803
 C          9.2642937163        0.4830143417       -3.4911002836
 C          8.0851383982        1.2100905689       -3.4858521077
 C          7.3783567347        1.3899180755       -2.3130466035
 C          7.8141830491        1.1826314116        1.2775910146
 C          9.0012335889        1.9135337326        1.3219507786
 C          9.6750341844        2.0745588076        2.5169005621
 C          9.1763316495        1.5204512227        3.6844897273
 C          7.9953683132        0.7971540073        3.6465430743
 C          7.3184615904        0.6232007358        2.4553393815
 C          5.0197249053        0.1786273542       -0.7974283414
 C          3.6420150453        0.1932753855       -0.8106627723
 C          0.7123247194       -0.1307427443       -0.0680620710
 N          1.3493678761       -1.3058159012       -0.0924900021
 C          0.6346702499       -2.4131735662       -0.1488398443
 C         -0.8038185391       -2.3627050234       -0.1537677356
 N         -1.4379291717       -1.2077490329       -0.1145609099
 C         -0.7193931111       -0.0819449912       -0.0875382681
 C         -1.5186505349       -3.5858369805       -0.1926905272
 S         -3.2429160508       -3.7295798393       -0.2045349302
 C         -3.1096158215       -5.4474860120       -0.2654867539
 C         -1.8281662308       -5.8905495637       -0.2763539045
 C         -0.8909820152       -4.8271791104       -0.2355135002
 C          0.5354887986       -4.8786954441       -0.2365579105
 C          1.3896587411       -6.0095671361       -0.2798112686
 C          2.7009098545       -5.6648977028       -0.2696909627
 S          2.9630043126       -3.9624074377       -0.2061744936
 C          1.2548439829       -3.6873565195       -0.1922036794
 C         -3.5699331651        0.3770260993       -0.9426643331
 C         -4.9461086109        0.3558609645       -0.9311892212
 C         -8.9163060807       -0.2169307060       -0.8444873550
 C         -9.5436401324       -1.4328841562       -1.0343024511
 H         -9.4544457791       -3.5511291938       -0.7273076473
 H         -7.2856521919       -3.4506129320        0.4553685773
 H         -6.1719964763       -1.2950481681        0.8152785401
 H         -6.5324974280        3.5164420367       -0.8596579976
 H         -7.8470482117        5.5416417785       -0.3936135128
 H         -9.8807638640        5.4094275418        1.0014242434
 H        -10.5817700986        3.2331818048        1.9349898385
 H         -9.2595137823        1.2100328902        1.4860479313
 H         -5.4956431001        2.6143036819        1.5250466919
 H         -3.0456285406        2.6583471604        1.4908364081
 H         -1.1239621442        3.2717948809        0.1194030291
 H          1.3117582926        3.1923784784        0.1575400273
 H          3.1093735755        2.5588287959        1.5391351170
 H          5.5573654003        2.5475739650        1.5540372258
 H          9.3866146818       -0.3435705350       -0.2148248238
 H         10.6454097529       -0.6431527062       -2.3044661512
 H          9.8159953426        0.3481310832       -4.4090690937
 H          7.7166157974        1.6492808928       -4.4013899339
 H          6.4646776897        1.9661172694       -2.3101354487
 H          9.3871282327        2.3552212870        0.4147376965
 H         10.5922326041        2.6448067857        2.5376464321
 H          9.7042095709        1.6513065073        4.6169516887
 H          7.6018629935        0.3566330324        4.5509444052
 H          6.4032607652        0.0502362075        2.4259284576
 H          5.5589877963       -0.4956376342       -1.4464542554
 H          3.1106915688       -0.4673338371       -1.4761426067
 H         -4.0053238254       -6.0367324590       -0.2907502316
 H         -1.5542356183       -6.9292423186       -0.3125095402
 H          1.0376233894       -7.0244043057       -0.3171472791
 H          3.5498993338       -6.3195878571       -0.2963530216
 H         -3.0354433830       -0.2395356475       -1.6470090716
 H         -5.4828659374       -0.2816710415       -1.6181284251
 H         -9.3663186604        0.6917431419       -1.2171154348
 H        -10.4890876295       -1.4674670682       -1.5557030966
