  73
 
 C         -5.6558541974       -4.6649880056        0.5015439783
 C         -4.2419758118       -4.9474520931       -0.0288122487
 C         -4.3219356871       -5.4433828700       -1.4808859682
 C         -3.6257943852       -6.0607970304        0.8237071553
 C         -3.4304954663       -3.6633042203        0.0092244786
 C         -2.2441490938       -3.5330959257        0.7266497223
 C         -1.5311111599       -2.3509587626        0.7373946402
 C         -1.9842152585       -1.2413691363        0.0225277356
 N         -1.2629594854       -0.0463342763        0.0241016485
 C          0.1219720576       -0.0715340086        0.0297437584
 C          0.8686108455        0.9152446495        0.7115754815
 C          2.2297871053        0.8955443230        0.7081569030
 C          2.9773447498       -0.1124628033        0.0221370144
 C          4.3879203306       -0.1403006746        0.0192266275
 C          5.0961820714       -1.3412402329       -0.2367228600
 C          6.4569274144       -1.4539788010       -0.1828329265
 N          7.1111496993       -2.6611410538       -0.4375154719
 C          7.2541500110       -0.2855864686        0.0882509276
 N          8.6325974398       -0.3963666544        0.1372103885
 C          6.6101110209        0.9028864339        0.3479866724
 C          5.2135342751        1.0281882161        0.3192709745
 C          4.7333342585        2.3200670541        0.4650140476
 N          4.4464070587        3.4416276385        0.5752490293
 C          2.1962372912       -1.1057169841       -0.6533294707
 C          0.8356829844       -1.0836375774       -0.6513819728
 C         -1.9414860030        1.1732097271        0.0247459041
 C         -3.1333559255        1.3290769286        0.7341233503
 C         -3.7962927670        2.5398507989        0.7370638328
 C         -3.3056871293        3.6420069904        0.0414423490
 C         -4.0054653463        4.9905298355        0.0214493455
 C         -5.2936914613        5.0002047247        0.8501214131
 C         -4.3662161166        5.3450154119       -1.4294392992
 C         -3.0573922395        6.0543300092        0.5955886212
 C         -2.1126429386        3.4729077719       -0.6639467759
 C         -1.4393247725        2.2716033768       -0.6782005601
 C         -3.1727700755       -1.3598826630       -0.7028259606
 C         -3.8720120764       -2.5463771421       -0.7030494047
 H         -5.6073349489       -4.2895480299        1.5218823421
 H         -6.1704784562       -3.9285515753       -0.1091915508
 H         -6.2443421123       -5.5799844192        0.4984620275
 H         -4.8844221650       -6.3734768141       -1.5266730507
 H         -4.8130447129       -4.7167854948       -2.1222420620
 H         -3.3229130419       -5.6246756334       -1.8727266574
 H         -3.5653212698       -5.7661329286        1.8689952035
 H         -2.6321375641       -6.3233414696        0.4677679877
 H         -4.2493692273       -6.9504616868        0.7617523841
 H         -1.8582255070       -4.3583962130        1.3018739692
 H         -0.6227956371       -2.2714423971        1.3168060571
 H          0.3429538418        1.6739519461        1.2738814724
 H          2.7618761309        1.6357258096        1.2832352161
 H          4.5286592432       -2.2421564145       -0.4172935259
 H          6.4853447389       -3.4543668447       -0.4673054869
 H          7.9085396613       -2.8348149697        0.1594926545
 H          9.0357001393       -1.0724654136       -0.4952088062
 H          9.1264967670        0.4840548627        0.1559805106
 H          7.1978685072        1.7884358573        0.5547607280
 H          2.6980185345       -1.8605962814       -1.2379593156
 H          0.2816760897       -1.8237387858       -1.2115276848
 H         -3.5284782030        0.4967928789        1.2981578140
 H         -4.7081635886        2.6131255823        1.3061853158
 H         -6.0128469336        4.2806080234        0.4654953354
 H         -5.7477792732        5.9877664637        0.7994005565
 H         -5.0889511366        4.7792495674        1.8952304569
 H         -3.4791604962        5.4173231520       -2.0525877556
 H         -5.0196924832        4.5841218914       -1.8518803993
 H         -4.8838187975        6.3013281604       -1.4618745087
 H         -2.1470843188        6.1357757040        0.0079674264
 H         -3.5466908857        7.0260301146        0.6017017053
 H         -2.7805244287        5.8010801730        1.6172699321
 H         -1.6950412595        4.2946152471       -1.2252226475
 H         -0.5252400586        2.1676797376       -1.2445318799
 H         -3.5312614743       -0.5175466589       -1.2761881136
 H         -4.7808128350       -2.6007606477       -1.2824357520
