  85
 
 C         -7.2100928668       -5.0106371362        0.7349534848
 C         -6.5394470125       -3.6907880751        0.5122479717
 C         -7.0670655762       -2.7476707133       -0.3630082057
 C         -6.4443966928       -1.5331287311       -0.5679911682
 C         -5.2659919343       -1.2213460902        0.1145932783
 N         -4.6098694528       -0.0061781375       -0.0719667904
 C         -5.3129026597        1.1599781306       -0.3685423251
 C         -6.6005015590        1.3875091422        0.1245881377
 C         -7.2683129275        2.5540762703       -0.1859467639
 C         -6.6815189900        3.5318015819       -0.9833627756
 C         -7.4162780962        4.7879714015       -1.3344231104
 C         -5.3940558899        3.3039522402       -1.4623916034
 C         -4.7163511319        2.1410379329       -1.1653519749
 C         -3.2153477696        0.0423254436        0.0378497420
 C         -2.4173694644       -0.8250015180       -0.7715280227
 C         -2.9733542292       -1.6545298418       -1.7505826621
 C         -2.1881449555       -2.5237398091       -2.4982131059
 C         -0.8266134822       -2.5854894424       -2.2766609791
 C         -0.2398732976       -1.7293414173       -1.3539581069
 C         -0.9983722002       -0.8071831206       -0.6213952712
 C         -0.3909437290        0.1214235627        0.2755386436
 C          1.0642732840        0.1531173624        0.4077436749
 C          1.8823871379        0.3984177422       -0.7023649113
 C          3.2552384225        0.4263716434       -0.5825071222
 C          3.8517814544        0.1922288713        0.6536173658
 P          5.6500182583        0.1571144016        0.8977071386
 O          6.0519077595        0.4070164631        2.2962644331
 C          6.3399509061        1.3793030283       -0.2661635201
 C          6.5922736690        1.0926862435       -1.6015550598
 C          7.1061657672        2.0760840313       -2.4285400407
 C          7.3693489949        3.3410545345       -1.9267141712
 C          7.1217119863        3.6266577604       -0.5932345930
 C          6.6070118178        2.6460255824        0.2357942154
 C          6.2202765367       -1.4642256953        0.2825552606
 C          7.4294822909       -1.9294815622        0.7829386978
 C          7.9333417919       -3.1468091459        0.3614598279
 C          7.2268718893       -3.9026789979       -0.5609097810
 C          6.0175840961       -3.4425596043       -1.0572570936
 C          5.5117390329       -2.2241098336       -0.6385223752
 C          3.0508899551       -0.0465287539        1.7659729694
 C          1.6778191255       -0.0593283490        1.6483895114
 C         -1.1902888983        1.0147763161        1.0492242693
 C         -0.6153614632        1.9745009201        1.8922753264
 C         -1.3939566465        2.7943538563        2.6987617944
 C         -2.7680707683        2.6581965228        2.6896060927
 C         -3.3693283311        1.7499579570        1.8265715745
 C         -2.6134259046        0.9541288831        0.9600759520
 C         -4.7284014247       -2.1677269915        0.9921581903
 C         -5.3580738784       -3.3784783182        1.1814433213
 H         -8.1253902881       -5.0870469093        0.1538310488
 H         -7.4535330140       -5.1388163480        1.7892142278
 H         -6.5455566834       -5.8253580739        0.4485926732
 H         -7.9753081737       -2.9708928375       -0.9042760857
 H         -6.8549887889       -0.8278491340       -1.2757719235
 H         -7.0620649289        0.6554577249        0.7711840368
 H         -8.2613671739        2.7135505694        0.2090654305
 H         -8.2251352273        4.9755223143       -0.6325378085
 H         -6.7417218283        5.6416946704       -1.3358554849
 H         -7.8462063508        4.7009713802       -2.3332765742
 H         -4.9189676445        4.0483603960       -2.0850151213
 H         -3.7224141980        1.9721337186       -1.5529515025
 H         -4.0359188274       -1.6314609586       -1.9346122786
 H         -2.6543210494       -3.1607231035       -3.2356129309
 H         -0.2124141678       -3.2866820356       -2.8224258880
 H          0.8266926744       -1.7771561674       -1.1976638203
 H          1.4220716901        0.5956014505       -1.6601608372
 H          3.8709228019        0.6428407757       -1.4442564040
 H          6.3975188233        0.1010703881       -1.9853708123
 H          7.3053818345        1.8538403358       -3.4668413090
 H          7.7727657760        4.1047308311       -2.5753405915
 H          7.3310023790        4.6108775073       -0.2001341004
 H          6.4148232857        2.8399578960        1.2824554615
 H          7.9562956967       -1.3269425104        1.5105464172
 H          8.8739839832       -3.5063848302        0.7524122627
 H          7.6174765250       -4.8542709822       -0.8903449781
 H          5.4651516160       -4.0355166312       -1.7717078327
 H          4.5657343701       -1.8651908091       -1.0181443856
 H          3.5292312282       -0.2182722808        2.7208362052
 H          1.0629121114       -0.2627351406        2.5135302605
 H          0.4585555979        2.0793601966        1.9197689305
 H         -0.9177267060        3.5248756011        3.3362672059
 H         -3.3844821767        3.2664496863        3.3352487438
 H         -4.4448499309        1.6688230433        1.8312102265
 H         -3.8199159496       -1.9333094913        1.5273911931
 H         -4.9317101892       -4.0955662897        1.8681283315
