  89
 
 C          9.5763773204        4.4368004355        0.9494835257
 C          9.9984981599        3.1431731926        1.2128720218
 C          9.1623176185        2.0748307164        0.9504156869
 C          7.8864816351        2.2877218764        0.4312055526
 C          7.0131829742        1.1355720161        0.1701092609
 C          5.6239992840        1.2167436747        0.2633240536
 C          4.8977025959        0.0535993878        0.0094219838
 C          3.4333510300        0.0018454274        0.0967161890
 C          2.6431651332        1.1292497619       -0.1211771371
 C          1.2688171239        1.0544710314       -0.0192936478
 C          0.6531689775       -0.1536167973        0.3013493135
 N         -0.7402159979       -0.2261217760        0.4229426358
 C         -1.4257645635       -0.7370430443        1.5073897001
 C         -0.9242411817       -1.2540959477        2.6934277506
 C         -1.8292236865       -1.6780575377        3.6472908667
 C         -3.2017588994       -1.5823982077        3.4315590196
 C         -3.7048738673       -1.0455248603        2.2630209209
 C         -2.8171613450       -0.6109776269        1.2866675253
 C         -2.9723011240        0.0033421135       -0.0059102772
 C         -4.0420000054        0.3798534287       -0.8041370772
 C         -3.7889359827        0.9466476590       -2.0617251404
 C         -2.4939367915        1.1287985200       -2.5401119711
 C         -1.4156505570        0.7640668728       -1.7592528857
 C         -1.6592912379        0.2261791735       -0.5012902481
 C         -5.0576010137        1.2571522897       -2.6982820259
 C         -5.3507983394        1.8243417127       -3.9285135666
 C         -6.6797484601        2.0077640981       -4.2756894178
 C         -7.6997236466        1.6323791901       -3.4139291269
 C         -7.4130967133        1.0625956196       -2.1801042414
 C         -6.0926176913        0.8800327808       -1.8333965084
 C         -5.5269576523        0.2881498415       -0.5575907106
 C         -6.0797529783       -1.0977551741       -0.3265682787
 C         -5.8823217713       -2.2373951165       -1.0746918463
 C         -6.5336710165       -3.4023789855       -0.6901472636
 C         -7.3727197868       -3.4166084334        0.4140686658
 C         -7.5761986258       -2.2713398499        1.1678152722
 C         -6.9227746757       -1.1078674699        0.7955952086
 C         -6.9009808477        0.2164008256        1.4009995050
 C         -7.5254915624        0.7133134773        2.5333860714
 C         -7.2825725493        2.0270801271        2.9023253717
 C         -6.4338440997        2.8309419939        2.1560191396
 C         -5.8102177544        2.3418419166        1.0153760947
 C         -6.0459053110        1.0354273467        0.6475251762
 C          1.4364927542       -1.2881074509        0.5055919176
 C          2.8091534818       -1.2077604734        0.4016395163
 N          5.5179858175       -1.0834868211       -0.3032808992
 C          6.8450513719       -1.0742507178       -0.3689017400
 C          7.5151627031       -2.3315205319       -0.7166853783
 C          8.9059181649       -2.3898922501       -0.7906943543
 C          9.5353115725       -3.5763688692       -1.1158703317
 C          8.7862086592       -4.7145161829       -1.3721547624
 C          7.4024404594       -4.6622364484       -1.3043242070
 C          6.7677939920       -3.4785193512       -0.9793662742
 N          7.6117779895       -0.0121685126       -0.1425286212
 C          7.4717662008        3.5907249473        0.1639180487
 C          8.3149381237        4.6564681363        0.4200605639
 H         10.2303989083        5.2720006117        1.1523421393
 H         10.9825528081        2.9678420528        1.6222976700
 H          9.4767885891        1.0618245821        1.1502755688
 H          5.1381674406        2.1285151195        0.5670371769
 H          3.1003890116        2.0709989795       -0.3848503800
 H          0.6643786104        1.9358752836       -0.1726297731
 H          0.1388702268       -1.3143126213        2.8712424309
 H         -1.4646512561       -2.0878726454        4.5779187458
 H         -3.8831971398       -1.9255057880        4.1961176228
 H         -4.7677112646       -0.9620812811        2.1152288999
 H         -2.3343004612        1.5505628334       -3.5208337288
 H         -0.4062036918        0.8822460518       -2.1224975574
 H         -4.5612437647        2.1190999473       -4.6039948089
 H         -6.9259268285        2.4492250932       -5.2309211970
 H         -8.7289195383        1.7846996117       -3.7048972029
 H         -8.2081245699        0.7701024672       -1.5089730671
 H         -5.2334144585       -2.2263057519       -1.9387098296
 H         -6.3862137465       -4.3082544742       -1.2601171676
 H         -7.8720386689       -4.3338963200        0.6915579707
 H         -8.2279915771       -2.2879329253        2.0289785626
 H         -8.1853017823        0.0903832417        3.1193085128
 H         -7.7588350943        2.4304138856        3.7844581651
 H         -6.2565045399        3.8510308928        2.4648205626
 H         -5.1528810020        2.9705028346        0.4319211043
 H          0.9605228532       -2.2304171887        0.7315562485
 H          3.4236227722       -2.0810466772        0.5558073814
 H          9.4743657661       -1.4944023242       -0.5929079107
 H         10.6134910986       -3.6152213561       -1.1712978179
 H          9.2802544386       -5.6411850723       -1.6256867187
 H          6.8178458975       -5.5478556859       -1.5069442982
 H          5.6917355938       -3.4205329577       -0.9270556612
 H          6.4981940495        3.7711589817       -0.2679770209
 H          7.9871679124        5.6628384449        0.2035287580
