  112
 
 C          6.2158060340        4.5260390852       -2.4358664969
 C          5.0720274163        4.7294577152       -3.1902354802
 C          3.9928208355        3.8748152535       -3.0623611744
 C          4.0424789517        2.7949334856       -2.1833359484
 C          2.8842168316        1.9070394170       -2.0036053671
 C          1.6012633680        2.4603614105       -1.9087268464
 C          0.4901854778        1.6841196279       -1.6528028998
 C          0.6768286181        0.3191989026       -1.4934461271
 C          1.9471557785       -0.2717626079       -1.6656619187
 C          3.0519284105        0.5282187052       -1.9056475213
 C          1.7506287618       -1.6903193670       -1.5104704742
 C          2.6083785936       -2.7747153386       -1.5270048198
 C          2.1011063040       -4.0512809459       -1.2976989913
 C          3.0060740144       -5.2082404726       -1.2694130552
 C          4.0831816726       -5.2948207567       -2.1510791980
 C          4.9463230415       -6.3734371103       -2.1082521580
 C          4.7545179431       -7.3844827276       -1.1807492552
 C          3.6874665310       -7.3115035589       -0.3004715452
 C          2.8201269095       -6.2364635787       -0.3461472187
 C          0.7262301974       -4.2189414451       -1.0771021147
 C         -0.1474309635       -3.1514786953       -1.0497288944
 C          0.3725372458       -1.8804318978       -1.2492218195
 N         -0.2620963347       -0.6559589888       -1.2179279756
 C         -1.4963760838       -0.3647055961       -0.6021735329
 C         -2.6961690167       -0.7647890578       -1.1709062401
 C         -3.9141959687       -0.4025070318       -0.5962149860
 N         -5.0797999736       -0.7851905148       -1.1247258869
 C         -6.2333107669       -0.3996502834       -0.5846007484
 C         -7.4756501388       -0.8135730759       -1.1498994012
 C         -7.5183769771       -1.6428831049       -2.2838177469
 C         -8.7336070379       -2.0212099475       -2.7962475145
 C         -9.8949722430       -1.5614344585       -2.1598272032
 N         -9.8819548033       -0.7880420339       -1.1044344979
 C         -8.7118787193       -0.4038743483       -0.5883429607
 C         -8.7105139132        0.4513964800        0.5713274344
 N         -9.8793487883        0.8413159564        1.0859178623
 C         -9.8899115394        1.6147373369        2.1413165981
 C         -8.7271144859        2.0688127913        2.7792130522
 C         -7.5130990363        1.6845677640        2.2683077505
 C         -7.4730031584        0.8550291569        1.1344599805
 C         -6.2319947115        0.4347648324        0.5709264608
 N         -5.0772996098        0.8140202026        1.1129681149
 C         -3.9129211857        0.4247206275        0.5865776702
 C         -2.6938797606        0.7800257980        1.1634760318
 C         -1.4953754243        0.3730483290        0.5969432702
 N         -0.2606129877        0.6572184466        1.2150126909
 C          0.6721973213       -0.3233204959        1.4921764991
 C          0.4773788459       -1.6871245367        1.6513085027
 C          1.5834938286       -2.4697574607        1.9092474185
 C          2.8694684513       -1.9238643116        2.0062711274
 C          4.0222803886       -2.8183608774        2.1882882947
 C          5.1879309393       -2.6198818578        1.4511201027
 C          6.2568308531       -3.4876650924        1.5736419701
 C          6.1854377466       -4.5614900044        2.4455735899
 C          5.0389331695       -4.7584836740        3.1975112300
 C          3.9647592046       -3.8978842434        3.0672806755
 C          3.0453178657       -0.5460390816        1.9084972055
 C          1.9456008667        0.2603100844        1.6666107750
 C          1.7574852030        1.6799840531        1.5111704318
 C          2.6214199232        2.7594265981        1.5293319210
 C          2.1218696005        4.0389207590        1.2993829149
 C          3.0335088836        5.1906690886        1.2727698329
 C          4.1098113714        5.2708068972        2.1560338146
 C          4.9792560374        6.3444036249        2.1147048511
 C          4.7946392854        7.3567870570        1.1872026890
 C          3.7284344897        7.2902362390        0.3053960756
 C          2.8548470256        6.2201978426        0.3495180252
 C          0.7483354850        4.2145015447        1.0765761965
 C         -0.1314084717        3.1520860002        1.0474946534
 C          0.3809543483        1.8780377945        1.2475745713
 C          5.2054816567        2.5898320218       -1.4438074044
 C          6.2794336208        3.4516846299       -1.5639828083
 H          7.0541780933        5.2007748007       -2.5285405953
 H          5.0203154613        5.5597943323       -3.8798906836
 H          3.1076029384        4.0337154722       -3.6612735089
 H          1.4844522487        3.5285700863       -2.0054738772
 H         -0.4933671906        2.1233837568       -1.5767579577
 H          4.0294991213        0.0885597662       -2.0309488639
 H          3.6654431807       -2.6281551941       -1.6834084483
 H          4.2297784559       -4.5214914573       -2.8909467748
 H          5.7719203242       -6.4277449606       -2.8034517405
 H          5.4316599978       -8.2253748981       -1.1454262175
 H          3.5329735089       -8.0950699043        0.4274704903
 H          2.0033272760       -6.1796325537        0.3581836067
 H          0.3375941169       -5.2165639609       -0.9373734142
 H         -1.2019328417       -3.2993611731       -0.8700774205
 H         -2.7019169942       -1.3393240952       -2.0837769572
 H         -6.5826343469       -1.9606968356       -2.7206771807
 H         -8.8038281226       -2.6567177996       -3.6648788524
 H        -10.8754635712       -1.8365160964       -2.5262564383
 H        -10.8694976706        1.8946945945        2.5064760286
 H         -8.7953503428        2.7046364463        3.6477730649
 H         -6.5763755045        1.9978549251        2.7063315982
 H         -2.6979561750        1.3545076350        2.0763882493
 H         -0.5085771126       -2.1206697928        1.5736084522
 H          1.4603029777       -3.5372532985        2.0059278041
 H          5.2416492198       -1.7926606475        0.7588920691
 H          7.1489060679       -3.3289522254        0.9847147749
 H          7.0198181937       -5.2408919043        2.5401329887
 H          4.9811753693       -5.5884259353        3.8871666072
 H          3.0774196729       -4.0518108219        3.6643470176
 H          4.0252019565       -0.1120379508        2.0354366678
 H          3.6773547515        2.6067524263        1.6874965414
 H          4.2508590740        4.4964603607        2.8959150221
 H          5.8041957242        6.3937571519        2.8110524257
 H          5.4767876895        8.1936631865        1.1530312786
 H          3.5795036058        8.0749031448       -0.4225210215
 H          2.0387609840        6.1682750099       -0.3560203640
 H          0.3656739378        5.2143830445        0.9365217603
 H         -1.1847715938        3.3060593791        0.8661916500
 H          5.2531630277        1.7622406822       -0.7515811610
 H          7.1693793641        3.2879407036       -0.9732146052
