  102
 
 C         -7.2395109975        2.2805238830        0.8695787574
 C         -6.9717417760        1.0520456625        1.4492883795
 C         -5.6724700953        0.6930225919        1.7502758087
 C         -4.6145847399        1.5606657412        1.4851550143
 C         -3.2275097106        1.1715808594        1.7661344163
 C         -2.3083346579        2.1109752076        2.2680404650
 C         -0.9725478269        1.8099185017        2.4367962863
 C         -0.5455975701        0.5442295110        2.0650488718
 N          0.7169633786        0.0228456663        1.9756945374
 C          0.6608407224       -1.2229730575        1.4182626108
 C          1.7182821648       -2.0817626022        0.9940334631
 C          3.0382122446       -1.6634264013        0.6573936630
 C          4.1190344508       -2.5637331131        0.8677019934
 C          5.4221609768       -2.2311005687        0.6586974272
 C          5.7240004594       -0.9482400736        0.1391425393
 C          4.6660636196       -0.0463745393       -0.1258771473
 N          5.2021980152        1.0863063811       -0.6991459733
 C          6.5572900147        0.9445942308       -0.8137488926
 C          7.5001941073        1.8154530942       -1.3289877695
 C          8.8250532767        1.4127840861       -1.3124219175
 C          9.1995993613        0.1683040659       -0.7955833449
 C          8.2695492011       -0.7076053126       -0.2842763042
 C          6.9227223612       -0.3278504979       -0.2833205831
 C          3.3262879886       -0.3499202057        0.0883382559
 C          2.2937192574        0.5994644482       -0.2902860868
 C          2.4205318922        1.9470887877        0.0802029199
 C          1.4045016144        2.8874956186       -0.0816584192
 C          1.6158301733        4.2729588744        0.3596522663
 C          0.5920875301        4.9878585470        0.9797513038
 C          0.7920205299        6.2898665791        1.3972799122
 C          2.0167284161        6.9059701724        1.2006186717
 C          3.0410170358        6.2085334063        0.5828189791
 C          2.8432512276        4.9051026618        0.1682238844
 C          0.1740381470        2.4897908635       -0.6034129336
 C          0.0174969348        1.1732575011       -1.0070005122
 C          1.0845412730        0.2504804771       -0.9207099150
 N          0.6879586280       -0.9344414429       -1.4845147662
 C         -0.6463414093       -0.8625589124       -1.7936971138
 C         -1.5138483530       -1.8427413116       -2.2492644647
 C         -2.8530752298       -1.5223513830       -2.3451071893
 C         -3.3401267456       -0.2455271341       -2.0233766489
 C         -4.7833051451        0.0308292680       -2.0448170422
 C         -5.6921722188       -0.9087055676       -1.5631453021
 C         -7.0477510136       -0.6416879513       -1.5562370559
 C         -7.5215630822        0.5685499745       -2.0323215095
 C         -6.6286448736        1.5115465769       -2.5118035305
 C         -5.2727568166        1.2470328329       -2.5158103093
 C         -2.4539426985        0.7513074866       -1.6378283179
 C         -1.1091768051        0.4436012662       -1.5139182181
 C          1.3089657822       -3.4266058064        0.7465120260
 C         -0.0118473984       -3.8196291704        0.6843447075
 C         -0.3474977479       -5.2049101276        0.3346170425
 C          0.4033131873       -6.2678296996        0.8361655835
 C          0.0856477390       -7.5723167278        0.5102861749
 C         -0.9844980456       -7.8409932664       -0.3273411118
 C         -1.7374642022       -6.7941199761       -0.8332235969
 C         -1.4255120364       -5.4891073004       -0.5033646325
 C         -1.0466226789       -2.8827983890        0.9024273771
 C         -0.6915988438       -1.5956042052        1.2826286596
 C         -1.4671357059       -0.4382088868        1.6227319163
 C         -2.8074299672       -0.1217703828        1.4818776883
 C         -4.8981193069        2.7954942883        0.9041143790
 C         -6.1973674286        3.1498288037        0.5964673568
 H         -8.2551930889        2.5588033167        0.6310918131
 H         -7.7812773423        0.3708466109        1.6676701300
 H         -5.4726845087       -0.2608945554        2.2160537615
 H         -2.6656228488        3.0959815275        2.5302937992
 H         -0.2743736521        2.5457830662        2.8077036524
 H          1.5643439872        0.5352548447        2.1574957286
 H          3.8910635098       -3.5275184165        1.2970104059
 H          6.2188764615       -2.9231589264        0.8818913453
 H          4.6619037334        1.8465092597       -1.0760351902
 H          7.2128317058        2.7757442247       -1.7316134015
 H          9.5849787609        2.0706961322       -1.7064752711
 H         10.2447029926       -0.1048596277       -0.8021852677
 H          8.5653962400       -1.6670028084        0.1119866333
 H          3.3081948885        2.2456437604        0.6211323391
 H         -0.3613760319        4.5099689688        1.1503885789
 H         -0.0107347990        6.8274162215        1.8813048851
 H          2.1717638555        7.9240095255        1.5258394844
 H          3.9976269203        6.6840843177        0.4207497674
 H          3.6449262736        4.3776330242       -0.3289818032
 H         -0.6384330478        3.1908411577       -0.7046929965
 H          1.2340788956       -1.7793928700       -1.4919736748
 H         -1.1558462512       -2.8332722139       -2.4888733191
 H         -3.5521430511       -2.2741285434       -2.6817096200
 H         -5.3294579320       -1.8492197733       -1.1737386639
 H         -7.7386387758       -1.3799972500       -1.1751198334
 H         -8.5814564421        0.7758921410       -2.0293335410
 H         -6.9921807274        2.4574594903       -2.8866973195
 H         -4.5834455382        1.9810357723       -2.9071040663
 H         -2.8160464979        1.7329505396       -1.3740136793
 H          2.0655837702       -4.1394164506        0.4567202774
 H          1.2270829242       -6.0664705216        1.5054483589
 H          0.6726196820       -8.3848377300        0.9136562734
 H         -1.2315180571       -8.8608277738       -0.5827744827
 H         -2.5717144968       -6.9973801030       -1.4892617679
 H         -2.0098055570       -4.6779105944       -0.9127912268
 H         -2.0813455744       -3.1730266728        0.8353514633
 H         -3.5006908802       -0.8477240317        1.0865270698
 H         -4.0885091723        3.4725640359        0.6720047913
 H         -6.3989096521        4.1073979557        0.1382798802
