  90
 
 C         -9.4494324256       -5.9877939624       -1.0016424801
 C         -8.3304531351       -5.9822234597       -1.8180910071
 C         -7.3621885740       -5.0069466163       -1.6653388387
 C         -7.4980060836       -4.0156130831       -0.6954126638
 C         -6.4700262680       -2.9750626322       -0.5335568839
 C         -5.1113850935       -3.3173808814       -0.5831828116
 C         -4.1116751730       -2.3771884811       -0.4394808383
 C         -4.4828976491       -1.0521994540       -0.2564681460
 C         -5.8474238488       -0.6899598532       -0.1777715261
 C         -6.8356117509       -1.6524174315       -0.3173551492
 C         -5.8792256088        0.7259102841        0.0679227641
 C         -6.9093458358        1.6384288297        0.2356950016
 C         -6.6037455571        2.9774824617        0.4446865787
 C         -7.6784039303        3.9632451683        0.6430017188
 C         -8.7742429235        3.6611641885        1.4494010505
 C         -9.7832794415        4.5858532509        1.6455279572
 C         -9.7175371561        5.8284878141        1.0369701079
 C         -8.6351672596        6.1390599670        0.2302394346
 C         -7.6235335496        5.2164464662        0.0363439509
 C         -5.2626876263        3.3854636625        0.4640972593
 C         -4.2216948158        2.4932135658        0.3073438157
 C         -4.5322856821        1.1523884159        0.1271029146
 N         -3.6989964547        0.0695548056       -0.0714945216
 C         -2.2974574086        0.0973941528       -0.0652205819
 C         -1.5776076745       -0.5034994115       -1.0949052373
 C         -0.1974304518       -0.4941959099       -1.0732819211
 C          0.4976332428        0.1340546998       -0.0412570463
 C          1.9669478279        0.1421380087       -0.0222415666
 C          2.6872528794       -1.0141419296       -0.3206143123
 C          4.0657791591       -1.0123747379       -0.2871115115
 C          4.7672613754        0.1527129909        0.0198217246
 C          6.2345140192        0.1286108832        0.0377923519
 C          7.0048925431        1.2409523468       -0.3004261057
 C          8.3910214505        1.0930088354       -0.2633198374
 C          9.3129496006        2.1782593346       -0.6250504102
 C         10.5750394775        1.8605415318       -1.1251538492
 C         11.4589447114        2.8597597320       -1.4846046357
 C         11.0983175832        4.1904114966       -1.3419402629
 C          9.8512413240        4.5157606142       -0.8333629242
 C          8.9615160576        3.5185936059       -0.4778366159
 N          8.9437578112       -0.0680575041        0.0859183067
 C          8.1366778289       -1.0779177804        0.3931386197
 C          8.7579853918       -2.3494489402        0.7785386872
 C          7.9658197185       -3.4551790241        1.0833308596
 C          8.5532557875       -4.6528405976        1.4439942301
 C          9.9340860790       -4.7598879530        1.5065780010
 C         10.7276798590       -3.6627693282        1.2087836524
 C         10.1455489280       -2.4627681317        0.8470226753
 N          6.8088907194       -1.0245872480        0.3760354271
 C          4.0505339494        1.3107894103        0.3145871832
 C          2.6702483077        1.3009174341        0.3030614674
 C         -0.2312315352        0.7478816686        0.9759853541
 C         -1.6113278508        0.7210173622        0.9739760130
 C         -8.6291563501       -4.0304772696        0.1183279495
 C         -9.5948728171       -5.0084349103       -0.0328864166
 H        -10.2046959621       -6.7511972365       -1.1202679548
 H         -8.2133579326       -6.7409184047       -2.5790535060
 H         -6.5001239845       -4.9991384899       -2.3170785680
 H         -4.8410251772       -4.3550170479       -0.7138657256
 H         -3.0732076699       -2.6716583148       -0.4552578366
 H         -7.8775664026       -1.3720265151       -0.2774349669
 H         -7.9379084955        1.3144585083        0.1804914223
 H         -8.8230646398        2.6998353361        1.9408459456
 H        -10.6230969888        4.3379919555        2.2792441711
 H        -10.5062119921        6.5509706925        1.1899866781
 H         -8.5801481517        7.1050747699       -0.2515784529
 H         -6.7908432215        5.4605755143       -0.6077727651
 H         -5.0386063187        4.4295000718        0.6272430064
 H         -3.1977585764        2.8349601874        0.3186074263
 H         -2.1063933011       -0.9649679676       -1.9154782644
 H          0.3512875267       -0.9542835091       -1.8817660398
 H          2.1578623801       -1.9256361450       -0.5561348004
 H          4.6246356844       -1.9094970330       -0.5060632445
 H          6.5452632052        2.1597225284       -0.6238902214
 H         10.8404657990        0.8198773640       -1.2319916362
 H         12.4316272487        2.6014748346       -1.8769565864
 H         11.7884200765        4.9725485665       -1.6221723305
 H          9.5709767498        5.5518773647       -0.7109967786
 H          8.0006203134        3.7851585187       -0.0628173882
 H          6.8927162863       -3.3541140568        1.0347870634
 H          7.9340118883       -5.5063938406        1.6788123739
 H         10.3912854914       -5.6970627630        1.7889365838
 H         11.8036814991       -3.7445682977        1.2604656174
 H         10.7490310976       -1.5984393203        0.6167737012
 H          4.5742462777        2.2177334860        0.5797257214
 H          2.1276042925        2.2067411920        0.5308902882
 H          0.2909748887        1.2209450520        1.7944715583
 H         -2.1656438016        1.1680452419        1.7856695854
 H         -8.7406174484       -3.2794925526        0.8874610648
 H        -10.4639033423       -5.0092111475        0.6099499033
