  68
 
 O          3.9338231485       -0.1713733905       -2.8794406609
 P          3.7183311140       -0.1161556177       -1.4200938465
 C          4.4855808786       -1.5119731815       -0.5345017943
 C          4.6909555264       -2.6818273958       -1.2534609298
 C          5.2611912298       -3.7825866374       -0.6388840967
 C          5.6268999093       -3.7138880227        0.6961382282
 C          5.4270717960       -2.5448943216        1.4139639076
 C          4.8575881127       -1.4420902770        0.8022768418
 C          4.4146865526        1.3848235743       -0.6545264814
 C          5.5351926463        1.9379064058       -1.2599495931
 C          6.1280349675        3.0664299888       -0.7223387418
 C          5.5996290286        3.6433935252        0.4218073673
 C          4.4778511040        3.0954558175        1.0240288120
 C          3.8825883175        1.9663653321        0.4890396240
 C          1.9563998227       -0.1268085575       -0.9581792589
 C          1.4765325406       -0.6869768676        0.2187822118
 C          0.1247400597       -0.6290622179        0.5013230218
 C         -0.7730891334       -0.0184605965       -0.3712828814
 Si        -2.6272576586        0.0236942343        0.0417740479
 C         -3.3993341816       -1.6643042255       -0.3447250245
 C         -4.7828013525       -1.7942695423       -0.4432556903
 C         -5.3686596315       -3.0168504827       -0.7176939762
 C         -4.5763567953       -4.1382310917       -0.9028809318
 C         -3.1987768066       -4.0265628467       -0.8134505099
 C         -2.6192768454       -2.8007638928       -0.5362100796
 C         -3.4919708094        1.3405365743       -1.0138771964
 C         -3.8156408202        1.0721093961       -2.3420647320
 C         -4.4318261273        2.0241483202       -3.1341149156
 C         -4.7391091714        3.2686994954       -2.6084799637
 C         -4.4286476243        3.5512633386       -1.2885627530
 C         -3.8114969557        2.5945395113       -0.5017909378
 C         -2.7988101415        0.4382399595        1.8851208089
 C         -1.9672438641        1.3900731132        2.4716294049
 C         -2.0910331377        1.7214594504        3.8088999501
 C         -3.0548735356        1.1034539905        4.5890388019
 C         -3.8885895298        0.1529860604        4.0234974697
 C         -3.7591395106       -0.1740756180        2.6849304282
 C         -0.2754052188        0.5348204431       -1.5470354570
 C          1.0741949963        0.4823969120       -1.8408613131
 H          4.4062355167       -2.7063921187       -2.2965373994
 H          5.4216675908       -4.6914406712       -1.2002275802
 H          6.0734475911       -4.5716267718        1.1772251633
 H          5.7190391573       -2.4913247143        2.4526982308
 H          4.7100592589       -0.5250627566        1.3547369115
 H          5.9218555889        1.4748534260       -2.1577415246
 H          6.9997864087        3.4953803767       -1.1945438237
 H          6.0605556033        4.5249155095        0.8426645661
 H          4.0646596075        3.5500089908        1.9127154141
 H          3.0021540115        1.5403990508        0.9494752262
 H          2.1588428973       -1.1705518001        0.9039229658
 H         -0.2445546007       -1.0631721792        1.4197448488
 H         -5.4060312472       -0.9210158714       -0.3091754624
 H         -6.4443338561       -3.0970338479       -0.7899445513
 H         -5.0309380975       -5.0945284074       -1.1194502428
 H         -2.5749992207       -4.8970760373       -0.9616251332
 H         -1.5431643921       -2.7216433252       -0.4735982183
 H         -3.5845931885        0.1003736338       -2.7563813515
 H         -4.6745457820        1.7965713300       -4.1627804476
 H         -5.2206274003        4.0143877063       -3.2250766012
 H         -4.6692089419        4.5196702527       -0.8726234830
 H         -3.5762053579        2.8207081487        0.5284087248
 H         -1.2107657910        1.8730683796        1.8684399267
 H         -1.4358262455        2.4622857074        4.2456878230
 H         -3.1542194692        1.3606369522        5.6340391607
 H         -4.6409862332       -0.3338316626        4.6281252233
 H         -4.4102706192       -0.9195549162        2.2516590572
 H         -0.9539060344        1.0157226784       -2.2365919204
 H          1.4649213457        0.9036302775       -2.7578326630
