  63
 
 C         -5.1672867554        1.8841750809       -0.2445118898
 C         -3.7490964046        1.5286580985        0.2427232992
 C         -3.2081569050        2.6374969475        1.1666698603
 C         -3.8045217444        0.2382114420        1.0330168578
 C         -4.5969798943        0.1734577819        2.1722301842
 C         -4.6535693087       -0.9577212409        2.9642685166
 C         -3.8841645753       -2.0594858808        2.6277829376
 C         -3.0928812865       -2.0247570179        1.5005772698
 C         -3.0549992484       -0.8920832929        0.6771497284
 N         -2.2896373182       -0.9048547053       -0.4806906508
 C         -1.3289893220       -1.9323769337       -0.6609755223
 C         -1.6850562214       -3.2273537426       -1.0174783249
 C         -0.7167345385       -4.2118922426       -1.1236714682
 C          0.6155521230       -3.9220180800       -0.8737109890
 C          1.0118940805       -2.6313650099       -0.5260103812
 N          2.2867266173       -2.3047806982       -0.2987726013
 C          2.6513353712       -1.0542680163       -0.0290358380
 C          4.0222081940       -0.7257779315        0.2182250002
 C          4.9892173575       -1.7434388314        0.1669448216
 C          6.3105179987       -1.4724180929        0.4118061615
 C          6.7002311756       -0.1671668880        0.7158083832
 C          5.7688328694        0.8422334974        0.7659959527
 C          4.4083174762        0.6028680322        0.5178191745
 C          3.4087023331        1.6455070942        0.5528466172
 C          3.7105962034        2.9906045534        0.8158450053
 C          2.7344563061        3.9583218012        0.8312304327
 C          1.4028012207        3.6242738824        0.5779027729
 C          1.0709571840        2.3197278370        0.3208732585
 C          2.0544758750        1.3164564021        0.3070875335
 C          1.6691439423       -0.0310825718        0.0342713477
 N          0.3909873621       -0.3453501184       -0.1648815261
 C          0.0182974964       -1.5918412586       -0.4322978326
 C         -2.1804161181        0.2175820780       -1.2814710642
 C         -1.4209356935        0.1458634541       -2.4582798147
 C         -1.2674378775        1.2449537292       -3.2727286089
 C         -1.8840957905        2.4402241104       -2.9378771441
 C         -2.6719033077        2.5039335457       -1.8033622214
 C         -2.8437155462        1.4110428538       -0.9640707048
 H         -5.1614778038        2.8184043294       -0.7980369476
 H         -5.8492199875        1.9888190694        0.5940337911
 H         -5.5423200629        1.0985862867       -0.8979903155
 H         -3.8629805318        2.7809457689        2.0211432896
 H         -2.2199708977        2.3650928475        1.5333583891
 H         -3.1302842229        3.5804540129        0.6336158331
 H         -5.1836935645        1.0322964750        2.4585505537
 H         -5.2806557106       -0.9746767610        3.8425216966
 H         -3.8965306029       -2.9462057205        3.2436941120
 H         -2.4874425057       -2.8823536260        1.2545051811
 H         -2.7226066957       -3.4500911637       -1.2160169559
 H         -1.0000013143       -5.2140021821       -1.4063862024
 H          1.3764368898       -4.6808562494       -0.9694132894
 H          4.6551038597       -2.7430505761       -0.0676991336
 H          7.0461122594       -2.2621738154        0.3719202726
 H          7.7398834701        0.0503979614        0.9126217667
 H          6.1032207367        1.8394209481        1.0038959356
 H          4.7299450447        3.2847057948        1.0092859077
 H          3.0000977979        4.9850293627        1.0369154397
 H          0.6422126861        4.3907550797        0.5835569154
 H          0.0524175938        2.0275783128        0.1136618314
 H         -0.9521032578       -0.7878325380       -2.7290779208
 H         -0.6688162496        1.1687748725       -4.1680695227
 H         -1.7628627504        3.3115873361       -3.5630409856
 H         -3.1633089076        3.4354897000       -1.5690807366
