  118
 
 C         -7.2708625710        0.2813818006       -2.9071542890
 C         -7.0072112705        1.0999716049       -1.6406095407
 C         -7.8286967034        0.4871894879       -0.4978633610
 C         -7.4666638813        2.5421873675       -1.8973895340
 C         -5.5403624086        1.1079496692       -1.2430737356
 C         -4.5536545508        0.4469136256       -1.9641845148
 C         -3.2334870763        0.4641399329       -1.5570200934
 C         -2.8430253515        1.1511546791       -0.4123872347
 C         -1.4289618592        1.1780239636       -0.0208318883
 C         -0.7536506574        2.4338383679        0.0358407883
 C         -1.3987497923        3.6513513680       -0.2130230136
 C         -0.7596387984        4.8573558318       -0.0162213700
 C          0.5514011158        4.9139935923        0.4605681720
 C          1.1966157211        6.2627899689        0.7303760560
 C          0.3603847080        7.0160356915        1.7746964643
 C          1.2395529013        7.0661269101       -0.5775511719
 C          2.6269915324        6.1397785566        1.2629306748
 C          1.2188375780        3.7134442899        0.6470972572
 C          0.6218886294        2.4734284589        0.3871381105
 C          1.3642057040        1.2521642728        0.4340157873
 C          2.7768445220        1.3011905604        0.8373352667
 C          3.7202265414        2.0461934948        0.1308447309
 C          5.0287784566        2.1189783559        0.5665770637
 C          5.4184548777        1.4605452585        1.7208120131
 C          4.4894905011        0.7205043366        2.4323066554
 C          3.1817511814        0.6402212028        1.9952753510
 C          0.7231386154        0.0201019763        0.2010717309
 C          1.4292726167       -1.1769625060       -0.0304270808
 C          2.8424961940       -1.1478807552       -0.4248304841
 C          3.8259135483       -1.8346187811        0.2841378447
 C          5.1421626838       -1.8004649497       -0.1238549625
 C          5.5380302110       -1.1000489297       -1.2611186767
 C          7.0040099408       -1.0898727658       -1.6618140893
 C          7.2649068948       -0.2642504343       -2.9243580972
 C          7.8280236520       -0.4834791276       -0.5174824274
 C          7.4628702685       -2.5306379697       -1.9276317688
 C          4.5497752628       -0.4349485185       -1.9763521102
 C          3.2304984684       -0.4544321821       -1.5664159406
 C          0.7540656248       -2.4330725325        0.0205835943
 C          1.3986165965       -3.6491649432       -0.2365024082
 C          0.7599008233       -4.8562556653       -0.0451522085
 C         -0.5501182320       -4.9155740231        0.4341105839
 C         -1.1947737855       -6.2658641591        0.6977359297
 C         -0.3562650518       -7.0250060083        1.7359422730
 C         -1.2406296818       -7.0618205540       -0.6145953675
 C         -2.6239634803       -6.1458433096        1.2341430323
 C         -1.2171400078       -3.7160928660        0.6288052746
 C         -0.6207286220       -2.4746387926        0.3745552040
 C         -1.3629408763       -1.2536650615        0.4298390685
 C         -2.7747149615       -1.3049669494        0.8358699259
 C         -3.7195720561       -2.0461082732        0.1272913555
 C         -5.0271856679       -2.1213798104        0.5654106607
 C         -5.4144228936       -1.4693787305        1.7241094983
 C         -4.4839696365       -0.7332404213        2.4377065607
 C         -3.1771787156       -0.6504397052        1.9983137328
 C         -0.7223519230       -0.0203181179        0.2024567275
 C         -3.8249106804        1.8338734734        0.3025625209
 C         -5.1420379692        1.8019894133       -0.1027642225
 H         -6.9787443334       -0.7568678175       -2.7677090606
 H         -6.7328683759        0.6921383946       -3.7584566580
 H         -8.3339194894        0.3038397505       -3.1394168120
 H         -7.7257942788        1.0633470011        0.4173551799
 H         -7.4905323938       -0.5271698168       -0.2993336929
 H         -8.8828102884        0.4574861776       -0.7666838521
 H         -8.5127317792        2.5556527670       -2.1967428772
 H         -6.8739770703        2.9894247180       -2.6929205770
 H         -7.3595819430        3.1558151929       -1.0071787376
 H         -4.8003567880       -0.0975963665       -2.8612182221
 H         -2.4862293856       -0.0589525768       -2.1373990823
 H         -2.4193422547        3.6477872244       -0.5643798778
 H         -1.3036723435        5.7666438751       -0.2229346017
 H         -0.6549350813        7.1814118789        1.4250520273
 H          0.3138804419        6.4453892511        2.7000235925
 H          0.8093478691        7.9839636287        1.9879887675
 H          0.2409648631        7.2408135406       -0.9684170169
 H          1.8108548872        6.5271033078       -1.3306145743
 H          1.7134178649        8.0310971764       -0.4096018236
 H          2.6510770787        5.5843772184        2.1977632059
 H          3.2743801792        5.6464009934        0.5415950914
 H          3.0296524368        7.1332115580        1.4511124120
 H          2.2362514448        3.7144634214        0.9979331443
 H          3.4237151691        2.5494402243       -0.7783942074
 H          5.7484986995        2.6968831767        0.0037892842
 H          6.4403048071        1.5241454846        2.0649538628
 H          4.7860081573        0.2066105225        3.3353226298
 H          2.4553428366        0.0681699404        2.5551235248
 H          3.5555002662       -2.3726108582        1.1816473567
 H          5.8741569006       -2.3328500764        0.4652719463
 H          6.9731784562        0.7732232431       -2.7784754433
 H          6.7249841931       -0.6702206508       -3.7767336619
 H          8.3274423243       -0.2854793183       -3.1591150815
 H          7.7271022628       -1.0647184529        0.3947374779
 H          8.8815486749       -0.4523102946       -0.7884414483
 H          7.4903395576        0.5297697890       -0.3125705254
 H          7.3577049634       -3.1492215965       -1.0406290698
 H          8.5082871275       -2.5424457349       -2.2293236025
 H          6.8684493865       -2.9734211905       -2.7243585979
 H          4.7945449025        0.1146135954       -2.8708301170
 H          2.4819940860        0.0719113136       -2.1422322321
 H          2.4184674834       -3.6436246178       -0.5899817361
 H          1.3034757729       -5.7643662069       -0.2581602680
 H         -0.3077469347       -6.4596094908        2.6643819195
 H         -0.8047499646       -7.9941393616        1.9447310782
 H          0.6582899363       -7.1883770176        1.3831538938
 H         -1.8136232479       -6.5185769091       -1.3633278426
 H         -0.2429165639       -7.2342752399       -1.0086727357
 H         -1.7141074339       -8.0277348834       -0.4510270663
 H         -3.2729567412       -5.6484784287        0.5170007951
 H         -2.6459741511       -5.5956462870        2.1720983494
 H         -3.0262001234       -7.1403151128        1.4176974214
 H         -2.2338112880       -3.7190805216        0.9817763908
 H         -3.4250023520       -2.5442368091       -0.7853910978
 H         -5.7480913209       -2.6961683764        0.0009510220
 H         -6.4355363131       -1.5349235076        2.0700684192
 H         -4.7785956893       -0.2243094440        3.3441454291
 H         -2.4496030286       -0.0814520466        2.5597655789
 H         -3.5525509953        2.3668303000        1.2024839530
 H         -5.8727578668        2.3310423286        0.4909288040
