  55
 
 N         -2.2176809823       -5.9346103738        0.0001104210
 C         -2.4415301312       -4.8100045833        0.0000471421
 C         -2.7168243015       -3.4240327641        0.0000455521
 C         -4.0444410978       -2.9862355454        0.0000428755
 C         -4.3370454673       -1.6355747935        0.0000365228
 C         -3.2891871596       -0.7261212728        0.0000338048
 C         -1.9564420419       -1.1704357361        0.0000292473
 C         -1.6564059335       -2.5111875263        0.0000347436
 C         -0.9947999648        0.0000038717        0.0000098536
 C         -1.9564200950        1.1704629651       -0.0000099974
 C         -1.6563566793        2.5112063340       -0.0000593446
 C         -2.7167543313        3.4240816161       -0.0000790800
 C         -2.4414391413        4.8100432070       -0.0001454157
 N         -2.2175860251        5.9346531218       -0.0001970069
 C         -4.0443814866        2.9863028960       -0.0000527186
 C         -4.3370124838        1.6356501326       -0.0000047420
 C         -3.2891732137        0.7261738618        0.0000105652
 C         -0.1567129647        0.0000124219        1.2580993215
 C         -0.8008141329        0.0000336323        2.4864376182
 C         -0.0878301424        0.0000429485        3.6703650930
 C          1.2961116867        0.0000294270        3.6249750583
 C          1.9534473233        0.0000058607        2.4123842761
 C          1.2396209561       -0.0000019100        1.2102981700
 N          1.9106320327       -0.0000267552        0.0000047347
 C          3.3359364714       -0.0000288375        0.0000030333
 C          4.0281190394       -1.2038655083       -0.0000148927
 C          5.4117869533       -1.2000345393       -0.0000176878
 C          6.1034485970       -0.0000303656       -0.0000014603
 C          5.4117884127        1.1999746542        0.0000165290
 C          4.0281206104        1.2038069831        0.0000193624
 C          1.2396171606       -0.0000346176       -1.2102864023
 C          1.9534390965       -0.0000565528       -2.4123758212
 C          1.2960985961       -0.0000635085       -3.6249637726
 C         -0.0878433571       -0.0000477276       -3.6703480875
 C         -0.8008225422       -0.0000270965       -2.4864175876
 C         -0.1567167064       -0.0000208059       -1.2580820566
 H         -4.8390234803       -3.7178162246        0.0000494054
 H         -5.3627209318       -1.2989482113        0.0000314980
 H         -0.6344649755       -2.8606746324        0.0000327931
 H         -0.6344097420        2.8606755517       -0.0000804234
 H         -4.8389461879        3.7179030419       -0.0000701757
 H         -5.3626949653        1.2990441758        0.0000286023
 H         -1.8815624638        0.0000437985        2.5100650466
 H         -0.6063470645        0.0000577890        4.6162927665
 H          1.8700268079        0.0000337567        4.5393674542
 H          3.0323970172       -0.0000069164        2.3889760807
 H          3.4778989870       -2.1332094057       -0.0000283229
 H          5.9502744685       -2.1357935562       -0.0000339292
 H          7.1829824974       -0.0000309950       -0.0000034076
 H          5.9502768383        2.1357331383        0.0000314415
 H          3.4779013997        2.1331514170        0.0000356596
 H          3.0323888234       -0.0000682008       -2.3889713568
 H          1.8700103428       -0.0000793888       -4.5393583092
 H         -0.6063640215       -0.0000487315       -4.6162734781
 H         -1.8815709039       -0.0000105195       -2.5100401959
