105

C      2.738733   -9.023089   -3.012130
C      2.965591   -9.423661   -1.697368
C      3.221109   -8.469685   -0.708670
C      3.252761   -7.098288   -1.017941
N      3.520401   -6.112045    0.001559
C      4.523349   -6.362431    1.009160
C      4.309530   -5.993158    2.349021
C      5.281356   -6.230203    3.324697
C      6.484975   -6.837239    2.976369
C      6.717252   -7.210563    1.654791
C      5.744181   -6.976506    0.679557
C      2.794151   -4.866939    0.007640
C      1.412447   -4.832597   -0.229834
C      0.708810   -3.620413   -0.220034
C      1.357051   -2.394277    0.016317
C      0.618639   -1.115244    0.016340
N     -0.712232   -1.164101    0.057132
C     -1.329952    0.017931    0.056768
C     -2.807162    0.019053    0.126984
C     -3.549269    1.212689    0.072511
C     -4.949629    1.212164    0.146516
C     -5.667671    0.014388    0.278421
N     -7.107968    0.010626    0.358541
C     -7.794645    1.020565    1.129195
C     -8.990807    1.596067    0.664612
C     -9.656961    2.572720    1.409865
C     -9.139135    2.989855    2.633551
C     -7.956571    2.432246    3.113061
C     -7.289864    1.456248    2.367376
C     -7.863856   -1.013744   -0.322898
C     -8.968734   -1.628129    0.292763
C     -9.694749   -2.625604   -0.363636
C     -9.329659   -3.023907   -1.647343
C     -8.240109   -2.426206   -2.276125
C     -7.512788   -1.430033   -1.619372
C     -4.936752   -1.181332    0.331399
C     -3.537361   -1.176594    0.257506
N     -0.707004    1.196266    0.003771
C      0.624473    1.138957   -0.039211
C      1.372861    2.412144   -0.112645
C      0.717562    3.656356   -0.143284
C      1.431304    4.861106   -0.221816
C      2.833152    4.871183   -0.270655
N      3.570112    6.108157   -0.354658
C      3.100300    7.174766   -1.207243
C      2.552656    6.902751   -2.473595
C      2.103308    7.936197   -3.300189
C      2.193067    9.259275   -2.875021
C      2.731731    9.551027   -1.624401
C      3.181458    8.517694   -0.797859
C      4.788179    6.272870    0.403518
C      5.914367    6.896929   -0.161709
C      7.094962    7.049933    0.570149
C      7.169009    6.583019    1.880123
C      6.064640    5.963136    2.459598
C      4.884408    5.808997    1.727542
C      3.495562    3.636058   -0.237146
C      2.779338    2.434273   -0.160846
N      1.331937    0.009199   -0.027065
C      2.743324   -2.440375    0.251388
C      3.447788   -3.651117    0.252372
C      3.019384   -6.715753   -2.351671
C      2.765469   -7.670008   -3.340267
H      2.541305   -9.765222   -3.781123
H      2.940199  -10.478803   -1.437318
H      3.380096   -8.803245    0.314383
H      3.370401   -5.532298    2.645063
H      5.094416   -5.942040    4.355578
H      7.242125   -7.019589    3.734497
H      7.657291   -7.680928    1.378736
H      5.953412   -7.258735   -0.349577
H      0.865560   -5.756667   -0.406144
H     -0.364722   -3.644649   -0.403841
H     -3.039446    2.169365   -0.032510
H     -5.476312    2.161879    0.082543
H     -9.403828    1.296734   -0.295903
H    -10.578053    3.007263    1.030621
H     -9.657181    3.748697    3.213913
H     -7.552294    2.751987    4.069837
H     -6.378529    1.021022    2.770523
H     -9.259378   -1.345552    1.301960
H    -10.542506   -3.092157    0.131300
H     -9.894976   -3.799428   -2.157937
H     -7.955997   -2.731133   -3.279677
H     -6.675109   -0.965598   -2.134227
H     -5.449901   -2.133116    0.452056
H     -3.016978   -2.131615    0.311724
H     -0.369934    3.703389   -0.105114
H      0.877643    5.797601   -0.227333
H      2.491224    5.878895   -2.834984
H      1.687653    7.705049   -4.277237
H      1.843830   10.062691   -3.518553
H      2.800899   10.582039   -1.287845
H      3.583736    8.766737    0.181274
H      5.884125    7.251591   -1.189255
H      7.956279    7.529841    0.113199
H      8.087054    6.702433    2.449349
H      6.117426    5.601272    3.482987
H      4.028826    5.337148    2.204766
H      4.581370    3.595013   -0.291199
H      3.342433    1.502228   -0.145407
H      3.296982   -1.521427    0.439549
H      4.521702   -3.632605    0.426454
H      3.056052   -5.665784   -2.634252
H      2.595297   -7.353884   -4.366359
