105
 xtb: 6.7.1 (edcfbbe)
C            2.34768678686834       -9.22144496010609       -2.15532839667276
C            1.89635586359609       -8.00870996832362       -2.65331722572653
C            0.98307573506551       -7.25613943921155       -1.94145257432106
C            0.50806176060615       -7.70942596491520       -0.70863632867251
N           -0.41390776315151       -6.94987391691395        0.01638830937963
C           -1.42150388426560       -7.58005064714710        0.75172036944034
C           -1.83317549180260       -7.05435014730700        1.97848693910196
C           -2.83335981063003       -7.67593831728313        2.69991905544393
C           -3.43554312494599       -8.82802880912460        2.21748828843974
C           -3.03048163047300       -9.35422916885953        1.00038972496632
C           -2.03438628738556       -8.73844952177712        0.26841978725090
C           -0.33297894953727       -5.55437199401096        0.00258575292621
C            0.91262705130593       -4.91253587140959        0.01792970543674
C            0.98997379760883       -3.54176198057085        0.00615413339811
C           -0.17182307416797       -2.75398095247175       -0.01745206456370
C           -0.08740494468176       -1.31306526097021       -0.02122542923229
N            1.13260171292649       -0.74511354914056       -0.00841204396659
C            1.16940247570669        0.59274153661835       -0.00829114416396
C            2.46566179472091        1.24019758787434       -0.00404378473548
C            2.57082972910613        2.63779345479708       -0.00580968788352
C            3.79955029418994        3.25237722213085       -0.00090338234613
C            4.97475161559681        2.48989298800800        0.00263865087969
N            6.22513604178043        3.11112688178733        0.00677556265574
C            6.42934854704265        4.27891754910326       -0.73395075711360
C            7.26290845996222        5.28942210708526       -0.24937389569446
C            7.46439711771940        6.43833781447284       -0.98872523441983
C            6.83774997956399        6.60391895883368       -2.21445906728372
C            6.00426630696557        5.60669472620346       -2.69739905122611
C            5.80036516619181        4.45100925962446       -1.96914143665185
C            7.27438749333617        2.55658653219735        0.74816559275282
C            8.58280691921621        2.58923874793569        0.26083977515868
C            9.61243800542499        2.03596114332047        0.99683298634042
C            9.35834961428783        1.43881217161813        2.22198807130139
C            8.06081583241480        1.40154580604608        2.70934236655932
C            7.02438788421644        1.95627787184038        1.98409916826799
C            4.87505111215213        1.09268962321665        0.00232459687377
C            3.64447692860098        0.48211912056839        0.00068612861520
N            0.08044949785023        1.36029359654658       -0.00919945437756
C           -1.10845325080044        0.72742623852062       -0.02154520784155
C           -2.30895197797602        1.51971702703124       -0.02014712677922
C           -2.24680152031342        2.92361669607959        0.02631333560364
C           -3.39099780992535        3.68073511619635        0.03113195065377
C           -4.65090912841574        3.06709162095815       -0.00918525994042
N           -5.81795586231242        3.84009549168784       -0.00199802043274
C           -5.88393553164332        4.98386147860624        0.79691977189734
C           -5.26443392459396        5.00725230013082        2.04913055203175
C           -5.32336016364875        6.14303719838127        2.83250113154327
C           -5.99849470422433        7.26965282611522        2.38761483164001
C           -6.61499127998511        7.25223188720182        1.14553472762456
C           -6.55972651397396        6.12314168107949        0.35229107545924
C           -6.90357481232802        3.46669277422968       -0.79650357605650
C           -8.21290072448694        3.66543941666965       -0.34970486995976
C           -9.28163442787103        3.29368946789391       -1.14145362461757
C           -9.06860750765329        2.71441809040630       -2.38331399081145
C           -7.77143928582302        2.50900514007879       -2.82921183591560
C           -6.69506012625320        2.88153796648306       -2.04819392414184
C           -4.72163206475096        1.66753839548197       -0.05603808508026
C           -3.57628563308275        0.91215901316992       -0.06165523467596
N           -1.21885429562581       -0.60818779407956       -0.03109046791268
C           -1.41641602186353       -3.40330356951899       -0.03230988847566
C           -1.49685791566380       -4.77368902713201       -0.02437145096617
C            0.97063200648978       -8.92907073020318       -0.20881094512659
C            1.88014673740173       -9.67574810617823       -0.93164912567431
H            3.03263383994998       -9.81932958006736       -2.73900387589376
H            2.22839530574413       -7.65820800830631       -3.62668599884406
H            0.60994142849090       -6.32005801011045       -2.34617372321593
H           -1.34662322312011       -6.15965389026810        2.35819990788877
H           -3.12900584136207       -7.25198389281747        3.65458736450923
H           -4.21789267122841       -9.29588217563971        2.79345001636586
H           -3.51373012688641      -10.23359051663475        0.61888774311885
H           -1.74383586590841       -9.13482986851233       -0.68723019992077
H            1.81476066056219       -5.51224809311880        0.03136581328465
H            1.95331550738514       -3.04749020641353        0.00405486524591
H            1.66829589780441        3.21983859240918       -0.02093224530385
H            3.87273548176251        4.33014812177687       -0.00168346268387
H            7.73340599466614        5.17978914121158        0.71461704492757
H            8.10211148538400        7.21923235444975       -0.60791426787494
H            7.00706041800675        7.49032164789027       -2.80604549275527
H            5.54250243517065        5.69896884953885       -3.67213156667488
H            5.18636452242682        3.64918522313508       -2.36077455916300
H            8.79304009377900        3.05005312098151       -0.66919993422381
H           10.62224981658606        2.08663902715955        0.66114247357810
H           10.15010602355667        1.03642936847431        2.84723625795729
H            7.83086755603672        0.96799504916145        3.69579449063426
H            6.00082166098194        1.94683647288487        2.37596432883108
H            5.78417834956464        0.49830881660157        0.00231353393155
H            3.57148316603976       -0.59529642922014       -0.00180696676205
H           -1.27132177494665        3.39366653151924        0.04345598504484
H           -3.32798931521880        4.75865089811174        0.05267548498592
H           -4.73192453724138        4.14695837460840        2.39581507006853
H           -4.83049996001324        6.17804890386825        3.77811987874090
H           -6.03995231964812        8.17525746815862        2.96920719884343
H           -7.14420404257207        8.12468994863661        0.75968212052883
H           -7.03400382678893        6.10138339929164       -0.63246940818277
H           -8.36930309357671        4.07497595928870        0.66183286844137
H          -10.29141074749600        3.41065874607529       -0.71936927623810
H           -9.93260011302171        2.39264520349491       -2.94212346550064
H           -7.63124231533013        2.05000723867761       -3.77322926935888
H           -5.70632063472438        2.73133944542153       -2.40261229238020
H           -5.68293487260525        1.18450937172093       -0.07878213606195
H           -3.61653822769789       -0.16536868600380       -0.09785148333882
H           -2.30270766287983       -2.79330083288650       -0.05351784295379
H           -2.45908322717058       -5.25674689323020       -0.04359780710671
H            0.61093239434541       -9.27945969751967        0.74047365740548
H            2.21465025939947      -10.62345584157197       -0.55090546752228
