47

C      7.655888    0.459459   -0.804134
N      6.218923    0.429042   -0.741829
C      5.354706    1.047375   -1.598370
N      4.100715    0.825726   -1.266632
C      4.153820    0.022996   -0.139954
C      3.178428   -0.552900    0.693393
C      1.724783   -0.399182    0.502722
C      1.150107   -0.025784   -0.725870
C     -0.236003    0.108765   -0.878614
C     -1.095633   -0.130470    0.197443
N     -2.506835    0.006660    0.043134
C     -3.339273   -1.129085   -0.224489
C     -2.831866   -2.432742   -0.364666
C     -3.680791   -3.513419   -0.626954
C     -5.051896   -3.310875   -0.756764
C     -5.574807   -2.026869   -0.626881
C     -4.724929   -0.947284   -0.364889
O     -5.336313    0.281332   -0.261827
C     -4.538117    1.373316   -0.008111
C     -5.202890    2.600083    0.089654
C     -4.484614    3.763845    0.351808
C     -3.104024    3.699362    0.517990
C     -2.440329    2.471678    0.419888
C     -3.145333    1.285433    0.150776
C     -0.548253   -0.508282    1.426255
C      0.837597   -0.641048    1.571554
N      3.605468   -1.297640    1.762186
C      4.929591   -1.454551    1.959569
N      5.940619   -0.956821    1.227409
C      5.477605   -0.228633    0.198875
H      8.021622   -0.564542   -0.915174
H      7.972857    1.059652   -1.660852
H      8.035370    0.904469    0.119245
H      5.684600    1.642984   -2.440380
H      1.773035    0.161752   -1.598112
H     -0.644826    0.398426   -1.843646
H     -1.766733   -2.629094   -0.275018
H     -3.265684   -4.512880   -0.730643
H     -5.711309   -4.150142   -0.960976
H     -6.643631   -1.861749   -0.730576
H     -6.280979    2.643337   -0.037796
H     -5.000233    4.717339    0.428415
H     -2.537586    4.603766    0.725826
H     -1.362662    2.460289    0.560120
H     -1.200494   -0.698737    2.274793
H      1.227564   -0.936617    2.544748
H      5.212745   -2.057739    2.817354
