  60
 
 C          3.9197623344       -3.1857919753       -2.6241413806
 C          2.8510858404       -2.3217286799       -2.8550549849
 C          2.7122412017       -1.1409164390       -2.1505205653
 C          3.6706170472       -0.8401507468       -1.1925543399
 C          4.7693399143       -1.7013717348       -0.9656087860
 C          4.8876918103       -2.8824483786       -1.6873277257
 C          5.5768189560       -1.0758270424        0.0443602576
 C          6.7530321696       -1.4391416814        0.6882672376
 C          7.2664525660       -0.5966730556        1.6542839336
 C          6.6142210463        0.5879553544        1.9910886141
 C          5.4431376811        0.9704903642        1.3650309208
 C          4.9343265276        0.1393875325        0.3765722441
 N          3.7844677479        0.2696105238       -0.3779778057
 C          2.8884923802        1.3479790674       -0.3268277058
 C          3.3747704803        2.6567013147       -0.4326619888
 C          2.5175403024        3.7353488198       -0.3668921452
 C          1.1604215233        3.4988389627       -0.2124004356
 S         -0.0903935285        4.7181160635       -0.0995794439
 C         -1.3154845483        3.4793146610        0.0642048469
 C         -2.6741244466        3.6932949243        0.2336723107
 C         -3.5095251991        2.6009783710        0.3469931652
 C         -2.9986123152        1.3003522649        0.2681600185
 N         -3.8625396870        0.1988227499        0.3772544164
 C         -5.1221633569        0.0677423789       -0.1874323025
 C         -5.7829776294        0.8939790957       -1.0858421364
 C         -7.0397556149        0.5104085466       -1.5160125991
 C         -7.6318109283       -0.6724410858       -1.0785361855
 C         -6.9676135318       -1.5175665355       -0.2122833819
 C         -5.7027759303       -1.1526867573        0.2322254572
 C         -4.7386749508       -1.7902107530        1.0815787560
 C         -4.6754552347       -2.9743498508        1.7989120926
 C         -3.5122476562       -3.2257657439        2.5110416679
 C         -2.4745167274       -2.2994021859        2.4845994089
 N         -2.5047756810       -1.1590731272        1.8108768033
 C         -3.6144928828       -0.9240047249        1.1287418398
 C         -1.6370549860        1.0886403928        0.1151793313
 C         -0.7815525309        2.1796865361        0.0235531916
 C          0.6513419360        2.1915581869       -0.1263781982
 C          1.5296528828        1.1152628300       -0.1728998715
 H          3.9923259964       -4.1002842625       -3.1945646842
 H          2.1162790565       -2.5789855009       -3.6041942683
 H          1.8897546788       -0.4706658500       -2.3505715695
 H          5.7233497615       -3.5451472208       -1.5184674030
 H          7.2501329250       -2.3646395888        0.4382257611
 H          8.1812685635       -0.8593546662        2.1650861877
 H          7.0314962645        1.2201441287        2.7614323388
 H          4.9376649191        1.8818723303        1.6465781428
 H          4.4324972573        2.8153069268       -0.5763249644
 H          2.8918098754        4.7443316458       -0.4420030207
 H         -3.0676663420        4.6962503371        0.2883323203
 H         -4.5640177782        2.7496137792        0.5188509464
 H         -5.3283539625        1.8000605668       -1.4547649697
 H         -7.5723440975        1.1411485196       -2.2122838220
 H         -8.6170098627       -0.9343885345       -1.4343647957
 H         -7.4132835576       -2.4462457312        0.1107566970
 H         -5.4982332454       -3.6742462077        1.8026857410
 H         -3.4035916472       -4.1325183627        3.0852335259
 H         -1.5589016290       -2.4783897294        3.0330333884
 H         -1.2501601160        0.0837732652        0.0837204580
 H          1.1581199584        0.1074497120       -0.0720595417
