  57
 
 C          5.7190859838        2.7184451619        0.5354951324
 N          5.3189623683        1.5354391671       -0.1822599209
 C          6.3249571845        0.8523858323       -0.9540700744
 C          4.0259336157        1.0812856299       -0.1395877320
 C          3.5564317387        0.1289735102       -1.0593378474
 C          2.2588470633       -0.3241984967       -1.0155583297
 C          1.3663982098        0.1522395254       -0.0496167361
 N          0.0542328222       -0.3065546130       -0.0242438721
 C         -0.3533418539       -1.6656666160        0.0130384132
 C          0.4633882347       -2.8114537877        0.1342984561
 C         -0.1191407672       -4.0653205311       -0.1864775058
 C          0.6095743777       -5.2225661422       -0.1053040602
 C          1.9394342045       -5.1940417475        0.3162347172
 C          2.5118584912       -3.9803582235        0.6831477518
 C          1.7992369045       -2.8078127944        0.6041934528
 N         -1.6849456400       -1.7455305934       -0.0112469331
 C         -2.1800248394       -0.5181057103        0.0217491022
 C         -3.5975482328       -0.3045541837       -0.1211046076
 C         -4.1324880689        0.8318626447       -0.7431739810
 C         -5.4988374318        0.9727218529       -0.8750034853
 C         -6.3577596642       -0.0067574989       -0.3994739545
 C         -5.8370507664       -1.1504097165        0.1927694909
 C         -4.4744194202       -1.3040563254        0.3234009210
 C         -1.1021961420        0.4556709674        0.0723383389
 C         -1.1838835398        1.8652242613        0.1479253956
 C         -0.2546731841        2.7244220084       -0.4908738018
 C         -0.3851036609        4.0879404602       -0.4047281064
 C         -1.4231252799        4.6631639150        0.3251535368
 C         -2.3451095388        3.8374491070        0.9635723540
 C         -2.2378106931        2.4717267858        0.8802057782
 C          1.8230774121        1.0990814561        0.8714503627
 C          3.1215724793        1.5503940378        0.8280763749
 H          6.6126275487        3.1343205505        0.0723589544
 H          5.9423777259        2.5045134691        1.5877986826
 H          4.9344163065        3.4748670723        0.4915962676
 H          6.1933829877       -0.2279083112       -0.8801931380
 H          7.3092042872        1.0985894410       -0.5585110441
 H          6.2957840105        1.1382423825       -2.0125839391
 H          4.2044834089       -0.2435845867       -1.8356051741
 H          1.9157487244       -1.0485662546       -1.7392682473
 H         -1.1453576153       -4.0702856903       -0.5175672591
 H          0.1540093213       -6.1656080565       -0.3712462057
 H          2.5121911535       -6.1068940062        0.3764221740
 H          3.5287079442       -3.9590215791        1.0496293286
 H          2.2464066388       -1.8909186362        0.9523815718
 H         -3.4723735932        1.5823204262       -1.1496414262
 H         -5.8996904275        1.8515641126       -1.3591612880
 H         -7.4262959689        0.1139860466       -0.4997131049
 H         -6.5033454295       -1.9208330364        0.5529970813
 H         -4.0534758051       -2.1853959336        0.7818568414
 H          0.5325339410        2.2992592998       -1.0943503027
 H          0.3235650861        4.7236116924       -0.9171018560
 H         -1.5109284542        5.7364970323        0.3952895122
 H         -3.1478159767        4.2757788075        1.5393954819
 H         -2.9364869734        1.8399746917        1.4077489611
 H          1.1523512239        1.4649815466        1.6340403082
 H          3.4430646543        2.2587574514        1.5739855773
