  103
 
 O         -0.0694205816        4.7493475249        3.0376377662
 S         -0.0133313069        4.0752879389        1.7656002824
 O          0.0051098061        4.8709168233        0.5650376839
 C         -1.3878459713        2.9240737527        1.6740291559
 C         -2.0064701527        2.5070683975        2.8374072589
 C         -3.0292947431        1.5807193686        2.7691444035
 C         -3.4378437203        1.0646858395        1.5382863576
 C         -4.5280477455        0.0831575245        1.4642866848
 C         -4.6212403736       -0.9405871454        2.4092047116
 C         -5.6362228542       -1.8787694030        2.3618428196
 C         -6.5818400325       -1.7889978761        1.3528743481
 C         -6.4935541815       -0.7612364235        0.4015253313
 C         -5.4810242264        0.1672433993        0.4453397166
 C         -7.6232481106       -0.8614330796       -0.5937756804
 C         -8.4759078171        0.3825082491       -0.6657820491
 C         -9.1731337065        0.9999511948        0.3489581000
 C         -9.8997501472        2.1446067059        0.0491519417
 C         -9.9232856567        2.6538050453       -1.2405852752
 C         -9.2224853904        2.0350253798       -2.2633699179
 C         -8.4949942302        0.8929943194       -1.9718118573
 C         -7.6735349975        0.0373532430       -2.8135143195
 C         -7.3681594868        0.1035482780       -4.1629513848
 C         -6.5422104085       -0.8684595921       -4.7045338494
 C         -6.0291821002       -1.8877690893       -3.9164180758
 C         -6.3310550025       -1.9608887537       -2.5629671953
 C         -7.1523981252       -0.9964659333       -2.0221303648
 C         -8.3698830202       -2.0738416472       -0.0927226379
 C         -9.5073988495       -2.6518117845       -0.6114626854
 C        -10.0252352703       -3.7742628478        0.0210306588
 C         -9.4121647213       -4.3018239054        1.1479189767
 C         -8.2676322580       -3.7234690675        1.6722036375
 C         -7.7451027874       -2.6030054693        1.0466644163
 C         -2.7984392833        1.5010804758        0.3764045157
 C         -1.7723590812        2.4236856608        0.4441420121
 C          1.3784680460        2.9671100472        1.7481198802
 C          2.0252571124        2.6769184982        0.5481073072
 C          3.0648608733        1.7884912409        0.5242238047
 C          3.4985914397        1.1146821485        1.7070521374
 C          4.5678523617        0.1900551712        1.6828552227
 C          4.7746288544       -0.7585038856        2.7550493842
 C          5.7816113960       -1.6634941825        2.7534769737
 C          6.7028332897       -1.6885123563        1.6698635671
 C          6.5188898523       -0.7421456464        0.5960566296
 C          5.5034253058        0.1449741000        0.5871263687
 C          7.6106976792       -0.9282301579       -0.4312837249
 C          8.4441507819        0.3121295352       -0.6529872513
 C          9.1682472154        1.0317019276        0.2720243399
 C          9.8682544701        2.1491298771       -0.1624566878
 C          9.8398705095        2.5315769790       -1.4955929495
 C          9.1121895022        1.8103477206       -2.4283576019
 C          8.4106681995        0.6944000558       -2.0022691209
 C          7.5717240173       -0.2461644026       -2.7273829435
 C          7.2179924320       -0.3123240346       -4.0651122951
 C          6.3857862486       -1.3393066553       -4.4806291335
 C          5.9137099108       -2.2833785980       -3.5804658563
 C          6.2642717585       -2.2240366391       -2.2384049531
 C          7.0920606381       -1.2045279593       -1.8218950538
 C          8.3990983347       -2.0736236542        0.1545443399
 C          9.5095682524       -2.6921391060       -0.3506858096
 C         10.0829383650       -3.7400469558        0.3746861902
 C          9.5350749757       -4.1500535756        1.5940577182
 C          8.4206263323       -3.5410837253        2.1169572798
 C          7.8255120235       -2.4822626901        1.3988811658
 C          2.7977381183        1.4299893218        2.9115336777
 C          1.7706498302        2.3329179868        2.9263156552
 H         -1.6908216807        2.9354541925        3.7758128297
 H         -3.5355707316        1.2712261954        3.6713042281
 H         -3.8679155751       -1.0120459779        3.1800300524
 H         -5.6874026057       -2.6670491060        3.0981171426
 H         -5.4361040280        0.9656230226       -0.2807662745
 H         -9.1546913266        0.6025441967        1.3534426402
 H        -10.4532603894        2.6445222146        0.8302238199
 H        -10.4959026060        3.5456267600       -1.4496307730
 H         -9.2435350092        2.4355814564       -3.2659808444
 H         -7.7649065183        0.8953581899       -4.7807688001
 H         -6.2939247085       -0.8327274351       -5.7553259586
 H         -5.3874234443       -2.6343437298       -4.3606969442
 H         -5.9323451845       -2.7551074161       -1.9483694329
 H         -9.9846545617       -2.2405196617       -1.4890247590
 H        -10.9168603935       -4.2423131871       -0.3692826879
 H         -9.8340503784       -5.1757389087        1.6225884279
 H         -7.7936114838       -4.1374686697        2.5497757792
 H         -3.0989656685        1.0988618112       -0.5797406037
 H         -1.2734193560        2.7786018568       -0.4439309022
 H          1.6956532366        3.1849641706       -0.3448834199
 H          3.5374487302        1.5640324312       -0.4182603981
 H          4.0666116611       -0.7709538952        3.5680682802
 H          5.8925167605       -2.3718315218        3.5610263339
 H          5.4200410624        0.8545749577       -0.2205153347
 H          9.1900404372        0.7335093494        1.3102048315
 H         10.4418034716        2.7278885074        0.5462627726
 H         10.3929898144        3.4046196791       -1.8096614451
 H          9.0929747628        2.1125797595       -3.4648173372
 H          7.5823615113        0.4202656765       -4.7697275045
 H          6.0996702929       -1.4067307429       -5.5201075655
 H          5.2656057581       -3.0743352424       -3.9279603926
 H          5.8969544767       -2.9590840184       -1.5368840607
 H          9.9379613441       -2.3786081758       -1.2915657004
 H         10.9594655281       -4.2382942296       -0.0098592739
 H         10.0028658945       -4.9630273032        2.1303017303
 H          7.9995240951       -3.8598541991        3.0582067173
 H          3.1141028243        0.9873774709        3.8421373762
 H          1.2646183412        2.5945102377        3.8426335359
