  74
 
 N         -6.6471502260       -2.8990941782       -2.5880372417
 C         -5.7485900671       -2.3491284455       -2.1311424916
 C         -4.6158405776       -1.6721076385       -1.6329080260
 C         -3.3452359628       -2.0742472346       -2.0531983916
 C         -2.2253954606       -1.3838438963       -1.6444370503
 C         -2.3429832136       -0.2668831627       -0.8134298949
 C         -1.1468026839        0.4755292501       -0.3881044941
 C         -1.1404497166        1.8689782186       -0.3744863334
 C          0.0000372481        2.5561238565        0.0000146509
 C          1.1405116656        1.8689545445        0.3745098750
 C          1.1468410579        0.4755052438        0.3881123164
 C          2.3430046635       -0.2669246479        0.8134549306
 C          2.2253884054       -1.3838764384        1.6444701713
 C          3.3452156722       -2.0742721578        2.0532801291
 C          4.6158344219       -1.6721393198        1.6330253231
 C          5.7485671378       -2.3491365496        2.1313302743
 N          6.6471129680       -2.8990687259        2.5882931945
 C          4.7457167339       -0.5666132504        0.7736080858
 N          6.0019766105       -0.1672889779        0.3119599290
 C          6.5335400165        1.1059618711        0.4192511441
 C          5.9972679963        2.2376056137        1.0149229007
 C          6.7583679303        3.3918034398        1.0073998438
 C          8.0265468902        3.4214421490        0.4318737285
 C          8.5741160069        2.2901867883       -0.1411766699
 C          7.8277321862        1.1188543891       -0.1469079402
 C          8.0790279936       -0.2128449901       -0.6270859361
 C          9.1475765155       -0.8036425527       -1.2888703734
 C          9.0503444933       -2.1340235682       -1.6462587459
 C          7.8998154673       -2.8684086511       -1.3688891380
 C          6.8235713442       -2.3019451263       -0.7122355674
 C          6.9298573633       -0.9757212349       -0.3220348681
 C          3.6068014850        0.1278658493        0.3865735930
 C          0.0000141393       -0.2090153123       -0.0000016867
 C         -3.6067678957        0.1279246545       -0.3865268834
 C         -4.7456955451       -0.5665558180       -0.7735201701
 N         -6.0019471981       -0.1671997382       -0.3118736590
 C         -6.9298448320       -0.9755971313        0.3221386121
 C         -6.8235502093       -2.3017868000        0.7124529852
 C         -7.8998130211       -2.8682166163        1.3691046798
 C         -9.0503690302       -2.1338304795        1.6463600755
 C         -9.1476134355       -0.8034825297        1.2888519695
 C         -8.0790457562       -0.2127183077        0.6270686568
 C         -7.8277539477        1.1189443117        0.1467862287
 C         -8.5741662234        2.2902578030        0.1409019197
 C         -8.0265913445        3.4214737569       -0.4322208703
 C         -6.7583751602        3.3918153410       -1.0076639051
 C         -5.9972468896        2.2376353599       -1.0150369038
 C         -6.5335310643        1.1060306853       -0.4193023925
 H         -3.2574228208       -2.9262115081       -2.7114134135
 H         -1.2516070143       -1.6945849288       -1.9898306617
 H         -2.0207545112        2.4135240097       -0.6808056997
 H          0.0000464559        3.6360656315        0.0000213465
 H          2.0208247972        2.4134811580        0.6808393506
 H          1.2515883025       -1.6946134472        1.9898343088
 H          3.2573811086       -2.9262244868        2.7115077919
 H          5.0238474950        2.2180514634        1.4814271858
 H          6.3627427096        4.2885982247        1.4613641653
 H          8.5902729588        4.3425464776        0.4440663598
 H          9.5635918782        2.3097443143       -0.5724205732
 H         10.0320979992       -0.2297879723       -1.5209055231
 H          9.8717610164       -2.6140482783       -2.1573135617
 H          7.8444474792       -3.9025968718       -1.6753537713
 H          5.9330918410       -2.8807625045       -0.5157171459
 H          3.7131666989        0.9647933763       -0.2871814310
 H          0.0000050840       -1.2887200707       -0.0000084106
 H         -3.7131127225        0.9648675124        0.2872123667
 H         -5.9330497882       -2.8806012804        0.5160199820
 H         -7.8444398213       -3.9023786705        1.6756569778
 H         -9.8717996563       -2.6138287497        2.1574171050
 H        -10.0321592814       -0.2296279950        1.5207945123
 H         -9.5636687175        2.3098304847        0.5720839902
 H         -8.5903409040        4.3425621558       -0.4445347309
 H         -6.3627425570        4.2885796583       -1.4616820091
 H         -5.0237959814        2.2180636510       -1.4814770951
