  68
 
 N          0.2672342470        7.0993146085       -0.5581863321
 C          0.0261961670        5.9777029103       -0.4557366380
 C         -0.2877453395        4.6132162146       -0.3584856244
 C         -1.1838241186        4.0594371386       -1.2648815378
 C         -1.4929329165        2.7090026529       -1.2055594621
 C         -0.9191507218        1.8924685961       -0.2425494758
 N         -1.2203677358        0.5205952750       -0.2489020799
 C         -0.3094266816       -0.5329311380       -0.4221131707
 C          1.0760868449       -0.3815114851       -0.6815563786
 C          1.5635544027        0.7776811825       -1.3299744480
 C          2.8828092181        0.9608564863       -1.6012680381
 C          3.8563240268       -0.0069092559       -1.2178644657
 C          5.2192432619        0.1858763339       -1.4627102756
 C          6.1475185193       -0.7711925716       -1.1116260589
 C          5.7451415599       -1.9664157367       -0.4887153023
 C          6.6765419859       -2.9619412107       -0.1167141518
 C          6.2607464989       -4.1289414935        0.4989739135
 C          4.9245445998       -4.3437472036        0.7661693207
 C          3.9525465882       -3.3771177138        0.4107441784
 C          2.5860712241       -3.5593553113        0.6696325277
 C          1.6571341039       -2.6013913098        0.3159645754
 C          2.0302418096       -1.4171872922       -0.3307266743
 C          3.4092224672       -1.2007193308       -0.5934749115
 C          4.3657563652       -2.1791035806       -0.2257614054
 N         -0.9419203432       -1.7062291688       -0.3743348238
 C         -2.2414154443       -1.4423879364       -0.2055214263
 C         -3.3193479981       -2.3732514633       -0.1790031272
 C         -3.0981724746       -3.7392170718       -0.3820496336
 C         -4.1556200250       -4.6177581019       -0.4041432490
 C         -5.4483624368       -4.1321772287       -0.2298287789
 C         -5.6758458057       -2.7884073582       -0.0219681365
 C         -4.6228073778       -1.8646368406        0.0207327841
 C         -4.8232253626       -0.4462473749        0.2798502582
 C         -6.0848803908        0.0626702756        0.6067797619
 C         -6.2846334372        1.3935447637        0.9020954967
 C         -5.2084320880        2.2756666133        0.9050097079
 C         -3.9547419029        1.8197006880        0.5809630054
 C         -3.7322776438        0.4730253739        0.2414173239
 C         -2.4562826035       -0.0515873491       -0.0893286451
 C         -0.0277841977        2.4289660288        0.7303684689
 C          0.5199168911        1.6543117057        1.7710086866
 C          1.3824236606        2.2081243028        2.6803698069
 C          1.7324413074        3.5594302472        2.5908844035
 C          1.1963049606        4.3463197832        1.6042847705
 C          0.3017034929        3.8085784111        0.6613085006
 H         -1.6264771281        4.6818623070       -2.0282433409
 H         -2.1746414573        2.2791871125       -1.9251963796
 H          0.8583703954        1.5160510930       -1.6768876398
 H          3.2113441372        1.8432783810       -2.1304007118
 H          5.5388082274        1.1026747564       -1.9371734797
 H          7.1967711215       -0.6112652545       -1.3122393757
 H          7.7239058337       -2.7955171110       -0.3206221050
 H          6.9903620453       -4.8766586099        0.7749866493
 H          4.5998436449       -5.2521417559        1.2513111486
 H          2.2601442418       -4.4662438659        1.1578150519
 H          0.6140917307       -2.7680058939        0.5288052738
 H         -2.0822950594       -4.0714671144       -0.5309813636
 H         -3.9886089722       -5.6724832873       -0.5631666262
 H         -6.2852533286       -4.8146422023       -0.2583689619
 H         -6.6951318507       -2.4597606627        0.1007537188
 H         -6.9352624545       -0.5980521294        0.6460780578
 H         -7.2744067964        1.7478381385        1.1483285486
 H         -5.3545643541        3.3132619091        1.1657725207
 H         -3.1220030837        2.5026794458        0.6102563491
 H          0.2511927433        0.6112991058        1.8521695323
 H          1.7943317555        1.5995903186        3.4714162173
 H          2.4205365254        3.9832552744        3.3067297767
 H          1.4508818903        5.3945655117        1.5356987528
