  50
 
 C          5.2477289213        2.7167792319        1.3798977420
 C          3.8939060150        2.9584992066        1.6075555724
 C          2.9242007170        2.0555775450        1.2158191061
 C          3.3394934771        0.8939400032        0.5794315254
 C          4.7122558722        0.6302119992        0.3616937168
 C          5.6681464684        1.5550166916        0.7633850451
 C          4.7837396701       -0.6568193899       -0.2716724336
 C          5.8334196185       -1.4378924287       -0.7388973006
 C          5.5437035913       -2.6504340764       -1.3324402240
 C          4.2261791214       -3.0834356586       -1.4727776088
 C          3.1652422785       -2.3255551521       -1.0155750978
 C          3.4511860044       -1.1141348856       -0.4011118526
 N          2.5910323994       -0.1679020395        0.1158881246
 C          1.1885120097       -0.2645220818        0.1564728107
 C          0.5930385949       -1.3811393052        0.7470714409
 C         -0.7826319183       -1.5175003174        0.8011581451
 C         -1.5645848379       -0.5110922418        0.2637242414
 C         -0.9659374453        0.6430167511       -0.3387585074
 C          0.4123217393        0.7517208237       -0.3908554818
 C         -2.0400135747        1.5022808578       -0.8075001742
 C         -2.3045003057        2.7094364047       -1.4490784492
 C         -3.6387714383        3.0681528475       -1.6573564384
 C         -4.7474506278        2.3085663101       -1.2712383453
 C         -4.5237540208        1.0957106199       -0.6264136573
 C         -5.1934916609       -0.0475966293       -0.0269867101
 C         -6.5283623630       -0.3806069741        0.1360400144
 C         -6.8511376163       -1.5693793637        0.7687495475
 C         -5.8611744685       -2.4245753235        1.2371871123
 C         -4.5169746552       -2.1213904780        1.0891026274
 C         -4.1828504227       -0.9372293647        0.4592748202
 N         -2.9410819149       -0.3837577250        0.1795124852
 C         -3.1802533840        0.7975532754       -0.4505119738
 H          5.9754476202        3.4488344373        1.6987570933
 H          3.5966025154        3.8711595388        2.1036358837
 H          1.8783725767        2.2446842341        1.4069150216
 H          6.7181899067        1.3632782521        0.5989242108
 H          6.8538272846       -1.0976416397       -0.6422526624
 H          6.3459777905       -3.2728502633       -1.7012773011
 H          4.0305261682       -4.0312901007       -1.9531930951
 H          2.1467998369       -2.6618280194       -1.1405437216
 H          1.2251959150       -2.1446329088        1.1748391170
 H         -1.2280474951       -2.3867149020        1.2589805267
 H          0.8825356623        1.6046250018       -0.8563025678
 H         -1.5149908279        3.3651844373       -1.7842621243
 H         -3.8292195082        4.0080740284       -2.1566285312
 H         -5.7426350328        2.6729591010       -1.4774120537
 H         -7.3022957351        0.2797933039       -0.2258496935
 H         -7.8886714829       -1.8383289608        0.9012795638
 H         -6.1432406673       -3.3449436048        1.7270079623
 H         -3.7555113712       -2.7918590678        1.4565955488
