  88
 
 C          4.4569032371        1.6963384924        2.8202307122
 C          4.9997622313        0.4366151492        3.0277185213
 N          4.2711833492       -0.6672389659        3.0428354010
 C          2.9723494108       -0.5665288376        2.8303994365
 C          2.3200297639        0.6373693864        2.5748650199
 C          0.8428675713        0.6714997608        2.2951414512
 C          0.5392737775        1.2581932310        0.9205096561
 C         -0.9957514221        1.4734908651        0.6620115217
 N         -1.4045895537        2.7198855736        1.2218312833
 C         -2.3705977791        2.4601542956        2.0974252854
 C         -3.0908121704        3.3421435181        2.9194212969
 C         -4.0559634078        2.8135551671        3.7445666384
 C         -4.3296713671        1.4392641981        3.7783330315
 C         -3.6393988320        0.5404790851        2.9810790552
 C         -2.6640547851        1.0501552730        2.1430820408
 N         -1.8248246076        0.4597952913        1.2648877301
 N          1.0693003112        0.5582339662       -0.2293551272
 C          1.2215185387       -0.8874860741       -0.1362876804
 C          1.8826422633       -1.4870811240       -1.3902917754
 C          2.2383022128       -2.9161856171       -1.0986879235
 C          3.4093447821       -3.2526556435       -0.4289135459
 C          3.6565958557       -4.5820269216       -0.1292186059
 C          2.7131988177       -5.5272993592       -0.5044232377
 N          1.5982849336       -5.2207632187       -1.1488518331
 C          1.3751237321       -3.9526663775       -1.4379201461
 C         -0.0062697868       -1.6714150675        0.1920669153
 N         -0.0580527855       -2.4440856963        1.2414762952
 C         -1.2942789689       -3.0525766312        1.1872651097
 C         -1.8905428062       -3.9726320439        2.0405587609
 C         -3.1722751508       -4.3848467346        1.7362034231
 C         -3.8541020786       -3.9013108559        0.6179315323
 C         -3.2736578855       -2.9916753881       -0.2454846590
 C         -1.9859150171       -2.5762332753        0.0494396059
 N         -1.1175400118       -1.7184151961       -0.5981495038
 C          0.3929231490        1.1294666022       -1.3681360950
 C          1.1743731861        2.3420067879       -1.9114047126
 C          2.5586213612        1.9152083284       -2.3006296339
 C          2.8898517379        1.6019561773       -3.6142312045
 C          4.1754946684        1.1738745279       -3.9059369895
 C          5.0830694643        1.0615435478       -2.8631623262
 N          4.7804543226        1.3556416674       -1.6077516408
 C          3.5585477801        1.7760156535       -1.3402153288
 C         -1.0631688980        1.5172825619       -0.9117930142
 N         -1.9805956447        0.6139920001       -1.5227348056
 C         -2.8503724604        1.3403123469       -2.2203021290
 C         -3.9272856999        0.9222764326       -3.0194774240
 C         -4.7139515740        1.8902396658       -3.5985318984
 C         -4.4632483305        3.2566738489       -3.4108904239
 C         -3.3994231462        3.6996725457       -2.6420597954
 C         -2.5911287398        2.7443110897       -2.0564571340
 N         -1.4461635130        2.8609385442       -1.3172105462
 C          3.0944429344        1.7933524356        2.5910676192
 H          5.0795749733        2.5759353936        2.8363694463
 H          6.0579075420        0.2981748288        3.1988220635
 H          2.4142548481       -1.4960668765        2.8697523977
 H          0.4284494790       -0.3343391351        2.3829933747
 H          0.3428671175        1.3117944825        3.0316122759
 H          0.9583953907        2.2728498138        0.8822787033
 H         -2.8767170979        4.3983486761        2.8918168316
 H         -4.6216263885        3.4706034802        4.3863454626
 H         -5.0966792605        1.0721737478        4.4416442145
 H         -3.8498473140       -0.5186329997        3.0076665458
 H         -1.7983442115       -0.4960632420        0.9822208322
 H          1.9149859806       -1.0561042300        0.6916474298
 H          2.7746167682       -0.9033770949       -1.6241854305
 H          1.2007806773       -1.4517096753       -2.2439738950
 H          4.1125527042       -2.4805432362       -0.1515328138
 H          4.5565868392       -4.8744552160        0.3864256224
 H          2.8479928625       -6.5782299677       -0.2896187837
 H          0.4528300106       -3.7506934045       -1.9726401998
 H         -1.3596283941       -4.3467060837        2.9012359539
 H         -3.6632937937       -5.1011670843        2.3760268110
 H         -4.8557932334       -4.2504651938        0.4213033248
 H         -3.7956011856       -2.6202899907       -1.1150032054
 H         -1.4349291277       -0.9023729270       -1.1398288939
 H          0.3185483238        0.3958291852       -2.1741346436
 H          1.2205686542        3.1171920129       -1.1451061132
 H          0.6407130990        2.7423477101       -2.7751976360
 H          2.1502712751        1.6987780985       -4.3968264302
 H          4.4633753172        0.9330960766       -4.9163749078
 H          6.0970399214        0.7256454864       -3.0295677593
 H          3.3573416622        2.0081656523       -0.3022488737
 H         -4.1194570665       -0.1293610514       -3.1629001203
 H         -5.5488442099        1.5937372491       -4.2141030891
 H         -5.1119813263        3.9782011008       -3.8811593594
 H         -3.2027695492        4.7511589276       -2.5026604448
 H         -1.3926874249        3.4993301613       -0.5353333062
 H          2.6309307126        2.7580158310        2.4343600248
