  59
 
 C         -3.0352831888       -3.8919389447        1.0272736673
 C         -2.1086471209       -3.0034498479        1.5666178258
 C         -2.1582283015       -1.6500919532        1.2871629418
 C         -3.1612729140       -1.2010455460        0.4387356032
 C         -4.1210348868       -2.0937458763       -0.0949392432
 C         -4.0505573284       -3.4471588821        0.1992495252
 C         -5.0241394920       -1.2984840481       -0.8845879643
 C         -6.1417254796       -1.5981516939       -1.6493261990
 C         -6.7850114180       -0.5686816325       -2.3133778579
 C         -6.3159180194        0.7402809657       -2.2338031942
 C         -5.2027716396        1.0627368426       -1.4791553059
 C         -4.5691120695        0.0376701016       -0.7889483577
 N         -3.4432821597        0.0807976402        0.0097642283
 C         -2.7454595916        1.2414747796        0.3593491414
 C         -3.4507417320        2.3614300665        0.8375250577
 N         -2.8321929864        3.4932303174        1.1380015954
 C         -1.5332881105        3.5899239251        1.0232821683
 C         -0.7018981688        2.5179222196        0.6127161682
 C          0.7125513500        2.5959148942        0.5340301266
 C          1.4550920825        3.7958358812        0.6610381961
 N          2.7491478552        3.8237499916        0.5847641014
 C          3.4350553013        2.6861393851        0.3748697294
 C          2.7309911477        1.4941043733        0.1723894499
 N          3.4182227621        0.3092007139       -0.0364351834
 C          4.5687877036        0.1342645615       -0.7889948057
 C          5.2112439490        1.0161248124       -1.6461431467
 C          6.3409934105        0.5671601996       -2.3079473711
 C          6.8175133478       -0.7287888449       -2.1339515130
 C          6.1637086737       -1.6216625866       -1.3036774701
 C          5.0295341402       -1.1932832984       -0.6300927615
 C          4.1099088563       -1.8449323762        0.2674609033
 C          4.0377176600       -3.1236232417        0.8004165647
 C          2.9992499642       -3.4220016665        1.6649185994
 C          2.0439603088       -2.4656862174        1.9974926812
 C          2.0946344393       -1.1854861402        1.4757465707
 C          3.1289305129       -0.8863951865        0.6037074459
 N          1.4183100750        1.4538271396        0.2459292448
 C         -1.3725259624        1.3190474043        0.2598749863
 H         -2.9618230357       -4.9420627419        1.2674686179
 H         -1.3376571564       -3.3799536349        2.2212828838
 H         -1.4463750256       -0.9655109464        1.7213287344
 H         -4.7758574609       -4.1350680964       -0.2076509673
 H         -6.4976985825       -2.6141574505       -1.7258190568
 H         -7.6590598881       -0.7808590411       -2.9108015183
 H         -6.8293231624        1.5208372650       -2.7753389984
 H         -4.8357306676        2.0768823774       -1.4349086751
 H         -4.5176627297        2.3318718630        0.9985280503
 H         -1.1202315593        4.5572272221        1.2728753812
 H          0.9510623292        4.7427176424        0.7825127288
 H          4.5085027632        2.7229101822        0.4360611148
 H          4.8396926487        2.0168100921       -1.8055613536
 H          6.8591800279        1.2376837596       -2.9770065186
 H          7.7033098658       -1.0419446873       -2.6657024442
 H          6.5220158104       -2.6325066182       -1.1849146471
 H          4.7784573914       -3.8662648721        0.5468828598
 H          2.9286247016       -4.4102148873        2.0941348808
 H          1.2515655539       -2.7240833633        2.6831815647
 H          1.3592332123       -0.4394561874        1.7334781568
 H         -0.7923188035        0.4919889616       -0.1195375051
