  82
 
 C         -7.0844135860       -5.2234101245        0.6770577395
 C         -5.7497675926       -5.0820661925        1.0225560350
 C         -5.1101648089       -3.8711395912        0.8407701642
 C         -5.7981077022       -2.7777919176        0.3143778386
 C         -5.0907229295       -1.5179437705        0.1344193299
 N         -3.7419387863       -1.5024206304       -0.0633724363
 C         -3.3904670538       -0.2495785955       -0.2244843977
 C         -2.0126826546        0.1712180404       -0.4141116127
 C         -1.1452920485       -0.6821922563       -1.0918497388
 C          0.1851231991       -0.3578900030       -1.2730139738
 C          0.6849375108        0.8382991973       -0.7637131737
 O          1.9722149543        1.2556982997       -0.8706707875
 C          2.9287799376        0.3915151085       -1.4630934165
 C          4.3096057488        1.0187975591       -1.2935356500
 C          4.7278816702        1.1651019711        0.1703712616
 C          5.0180350577       -0.1737924315        0.8661872243
 C          6.1583892247       -0.9130470346        0.2245441222
 C          5.9521011928       -1.9775787034       -0.6385411442
 C          7.0048864534       -2.6515986636       -1.2545606063
 C          8.3156681586       -2.2866878327       -1.0258539910
 C          8.5632804553       -1.2271050736       -0.1609850376
 C          7.4843372532       -0.5485833656        0.4526124319
 N          7.9873403891        0.4474968436        1.2541831218
 C          9.3564213815        0.4350190569        1.1904975445
 C         10.2802880709        1.2471581518        1.8318734981
 C         11.6200038327        1.0171135680        1.5832138032
 C         12.0343593909        0.0056857316        0.7177523943
 C         11.1184530525       -0.8057805386        0.0773692626
 C          9.7649758877       -0.5956540274        0.3109367797
 C         -0.1797241827        1.6931893549       -0.0746240294
 C         -1.5052748858        1.3652070628        0.1012316916
 N         -4.4781910956        0.5806431655       -0.1432200887
 C         -4.5080524933        1.9794780117       -0.3080340475
 C         -3.9769426929        2.5507559821       -1.4596703849
 C         -4.0183359269        3.9229830178       -1.6253697775
 C         -4.5939608943        4.7262211988       -0.6540831981
 C         -5.1252404235        4.1549391762        0.4904353046
 C         -5.0822380513        2.7839718777        0.6698090809
 C         -5.5745613515       -0.2212497582        0.0968642407
 C         -6.9215702158        0.3089518461        0.2708596330
 C         -7.4692401891        1.1992200749       -0.6511648333
 C         -8.7461055712        1.6973028578       -0.4668919722
 C         -9.4914926964        1.3162553716        0.6365311691
 C         -8.9561574103        0.4270397323        1.5553334537
 C         -7.6805771090       -0.0734289305        1.3767906963
 C         -7.1347420374       -2.9343760788       -0.0489247229
 C         -7.7707387841       -4.1477997703        0.1367396855
 H         -7.5860592084       -6.1693117988        0.8217508206
 H         -5.2064272760       -5.9199558669        1.4358995845
 H         -4.0698322153       -3.7479602561        1.1018083629
 H         -1.5336078653       -1.6125161207       -1.4771267314
 H          0.8206209787       -1.0413853980       -1.8132617354
 H          2.7070984050        0.2655695130       -2.5317804704
 H          2.8919563872       -0.5918167288       -0.9807087990
 H          4.2902300664        2.0082141598       -1.7540669640
 H          5.0354763950        0.4033527184       -1.8271758512
 H          3.9328750843        1.6823090055        0.7108698371
 H          5.6237557631        1.7883350321        0.2050929831
 H          4.1241002645       -0.7982441970        0.8467902032
 H          5.2532076470        0.0237969937        1.9157018175
 H          4.9400277457       -2.3003197367       -0.8379613840
 H          6.7840660371       -3.4742284453       -1.9193415134
 H          9.1308111320       -2.8106763320       -1.5019545509
 H          7.4398470926        1.0712498517        1.8217193833
 H          9.9632092265        2.0320039425        2.5031246532
 H         12.3632668739        1.6328018416        2.0690224228
 H         13.0912196904       -0.1424365403        0.5491609093
 H         11.4448730913       -1.5886444842       -0.5912457922
 H          0.2194447900        2.6124424892        0.3253241867
 H         -2.1426792860        2.0322344008        0.6616886756
 H         -3.5350545520        1.9159549811       -2.2137374167
 H         -3.6044904756        4.3638981283       -2.5197418273
 H         -4.6288184706        5.7965664039       -0.7897676271
 H         -5.5730096214        4.7769553678        1.2508349008
 H         -5.4885361201        2.3327937851        1.5629568723
 H         -6.8973360840        1.4903948054       -1.5208080111
 H         -9.1602522958        2.3846703072       -1.1902504851
 H        -10.4876449055        1.7082473681        0.7794455203
 H         -9.5336784279        0.1250564886        2.4169656577
 H         -7.2585460227       -0.7649736930        2.0920226243
 H         -7.6727272559       -2.1064333011       -0.4867610440
 H         -8.8077672365       -4.2560936530       -0.1480416982
