64
 xtb: 6.7.1 (edcfbbe)
C           -5.98376613215631       -1.59874047198472       -0.02703552313789
C           -5.05939566828412       -0.36760622321397        0.00422896227813
C           -5.89434600987788        0.92589119858045        0.03266349474501
C           -4.21410945233424       -0.42698618016352        1.26310965937503
C           -4.83370884068258       -0.43694728985588        2.50535473333755
C           -4.11390039099116       -0.48682134455649        3.68518193576914
C           -2.73246553756488       -0.52619906930409        3.63407208238119
C           -2.09033676134702       -0.51685411239380        2.41339792738295
C           -2.81695025637063       -0.46969938033566        1.22027917104658
N           -2.14340245491598       -0.46001427123746        0.00989518121839
C           -0.72301917779760       -0.50725580792067        0.01169791344090
C           -0.06649817596203       -1.73845643424138        0.03151168853471
C            1.30717860095369       -1.76680315153565        0.03145726541309
C            2.04890289258412       -0.58173636020382        0.01310584402298
C            1.39691711979107        0.66729705979911       -0.00458815861583
C           -0.00106867546383        0.67160230846494       -0.00574113643790
C            2.18031381503812        1.89577466561042       -0.01940574075837
C            1.58589327315808        3.15942949954017       -0.03228336981131
C            2.35696015657049        4.31368327215411       -0.04481513846622
C            1.71994260201334        5.57645121101342       -0.05661962303951
N            1.20467893390338        6.60045087816454       -0.07110155143528
C            3.75564928452666        4.23915324402828       -0.04537928582955
C            4.35423640240080        3.00439596126438       -0.03290675921710
C            3.58900530709659        1.83293068466029       -0.01962956322670
C            4.26123452906296        0.55188775062569       -0.00557696457147
N            5.58041556856835        0.52385964148449       -0.00918535982361
C            6.18476657444178       -0.67166376350271        0.00491352057818
C            7.59431631542785       -0.74922617536340        0.00182996634837
C            8.20542883527444       -1.96976107751291        0.01537962981250
C            7.44829404951998       -3.15800323168513        0.03255365875364
C            6.08377364308893       -3.12038859377189        0.03610638910054
C            5.41708071423522       -1.87610134541712        0.02233066983348
N            4.07803758087886       -1.83442096633085        0.02745385484124
C            3.49377541773338       -0.65125504676577        0.01159825338714
C           -2.81109609850435       -0.41539722115456       -1.20443414981203
C           -2.07925018555029       -0.42061316273257       -2.39528704988634
C           -2.71557900675905       -0.37518554175074       -3.61818923044045
C           -4.09646772184009       -0.32454982926227       -3.67386408556076
C           -4.82168465994364       -0.32274610111453       -2.49629897344686
C           -4.20797730441416       -0.36833861189917       -1.25192469757230
H           -6.62093164439377       -1.61232315757087        0.87214277524866
H           -5.38726989258361       -2.50925204268101       -0.01381624454427
H           -6.62012577852741       -1.60011391294988       -0.88835888101399
H           -6.52964836627218        0.97226727031531        0.88957639001140
H           -6.52796994419704        0.98443180037797       -0.87125785080796
H           -5.23522900605601        1.79211423248515        0.01602298320159
H           -5.90692332480435       -0.36157559255345        2.55905409954984
H           -4.62064163096316       -0.42023529861303        4.63074699908392
H           -2.14341313155499       -0.49817417770916        4.53698991211181
H           -1.00784953102856       -0.51662105521172        2.37224788690103
H           -0.64559965355961       -2.64933269510108        0.01339357057571
H            1.84882728301920       -2.69933367436118        0.01298677167232
H           -0.55675450091480        1.59574474079547       -0.00607926659907
H            0.51297057156565        3.26824548840297       -0.00941221875120
H            4.34124055755670        5.14602807964030       -0.01610305574615
H            5.42794658892884        2.90279198354819       -0.00946525709082
H            8.15561417609628        0.17218532276306       -0.00338611129430
H            9.28339828513293       -2.03609238893480        0.00373407025233
H            7.96412742850782       -4.10689639126354        0.01251466690248
H            5.48615541535730       -4.01863858387168        0.01436729886071
H           -1.00478251637009       -0.49257427575935       -2.36596116080970
H           -2.13733126430336       -0.44539422360660       -4.53182256673252
H           -4.61426576733092       -0.36115674831523       -4.62796179587873
H           -5.90332517470650       -0.32712927325555       -2.55744250700635
