  116
 
 C        -12.8872123223       -2.5828930635       -0.1905056212
 C        -12.9286184624       -1.2690017831        0.2473441338
 C        -11.7715040640       -0.5165689901        0.2947065812
 C        -10.5518179652       -1.0705846632       -0.0917530889
 C         -9.3544683985       -0.2464027710       -0.0317382972
 N         -9.4399603335        1.1092547383       -0.1182628211
 C         -8.2179119804        1.5787564552       -0.0726309069
 C         -7.8958233580        2.9954180307       -0.1016819698
 C         -8.7410743079        3.8501940908       -0.8095548467
 C         -8.4796428779        5.2049515486       -0.8623788100
 C         -7.3749283163        5.7269645933       -0.2082608750
 C         -6.5451894922        4.8879131245        0.5165383177
 C         -6.8028338151        3.5311278992        0.5777014026
 N         -7.3068422677        0.5606713730        0.0398611931
 C         -5.9047219482        0.6494481998        0.0677808931
 C         -5.2290094523        1.3001829489       -0.9591175257
 C         -3.8492629646        1.3463358619       -0.9500294806
 C         -3.1262567988        0.7359152409        0.0708548962
 C         -1.6491439158        0.7481989550        0.0574576320
 C         -0.9560120772        1.9418163046        0.2991011310
 C         -1.6366805573        3.1556836812        0.5810670208
 C         -0.9529243085        4.3032781946        0.8391305292
 C          0.4561527595        4.3039006770        0.8495693871
 C          1.1463255353        3.1592921479        0.5939680416
 C          0.4735408771        1.9446583322        0.2971611574
 C          1.1721666073        0.7563806028        0.0378226841
 C          2.6479564304        0.7507859995        0.0286410847
 C          3.3527697912        0.0284725475        0.9879324616
 C          4.7312031299       -0.0253708196        0.9591905492
 C          5.4389625092        0.6429044873       -0.0380327215
 C          6.8894948770        0.5732932231       -0.1316544190
 N          7.6622018772        1.5974109470       -0.3825332174
 C          8.9341476210        1.1156714278       -0.3737951219
 C         10.1433334890        1.8439898666       -0.5494246499
 C         10.1325273299        3.2279351965       -0.7526790896
 C         11.3113802743        3.9182161529       -0.8829550172
 C         12.5200376647        3.2287742419       -0.8067225861
 C         12.5420169505        1.8673270531       -0.6137540492
 C         11.3583773598        1.1242724211       -0.4858292200
 C         11.3468203652       -0.3185692914       -0.3173938498
 C         12.5302073759       -1.0704032377       -0.3362796508
 C         12.5264373971       -2.4405030284       -0.2244593864
 C         11.3228089884       -3.1280203527       -0.1062152389
 C         10.1414705465       -2.4291908620       -0.0751730338
 C         10.1255655298       -1.0293712655       -0.1563237488
 C          8.9308798998       -0.2561990902       -0.1269351400
 N          7.6059760661       -0.5923281350        0.0390470924
 C          7.0239159184       -1.8411351765        0.3276822657
 C          6.0978117498       -2.3845566199       -0.5553394240
 C          5.4784002030       -3.5822557475       -0.2481111098
 C          5.7810497736       -4.2410193614        0.9317502681
 C          6.7068750067       -3.7002222747        1.8095285384
 C          7.3261692608       -2.4995103561        1.5159431324
 C          4.7384668856        1.4048046063       -0.9714617200
 C          3.3598206346        1.4536471352       -0.9404449167
 C          0.4765848083       -0.4365462176       -0.2134167077
 C          1.1512069044       -1.6487348292       -0.5175502555
 C          0.4640741559       -2.7973202565       -0.7630026324
 C         -0.9445011419       -2.8041432310       -0.7347023359
 C         -1.6305677997       -1.6598904379       -0.4684332592
 C         -0.9527456609       -0.4418913958       -0.1961071694
 C         -3.8128400937        0.0971186813        1.0990266215
 C         -5.1926782117        0.0550902247        1.1037796523
 C         -8.0234577249       -0.6160181117        0.0760725062
 C         -7.3798579885       -1.9156260825        0.2181636686
 C         -6.2973852746       -2.2725117584       -0.5846473790
 C         -5.6756011866       -3.4953814483       -0.4150870804
 C         -6.1258493364       -4.3789668323        0.5511638773
 C         -7.2096237707       -4.0373304297        1.3443681251
 C         -7.8321623404       -2.8146984790        1.1833486183
 C        -10.5211484901       -2.3863654981       -0.5497288383
 C        -11.6821999043       -3.1348146531       -0.5932923294
 H        -13.7915178283       -3.1729698779       -0.2250213972
 H        -13.8681807787       -0.8314222686        0.5530010741
 H        -11.7875794562        0.5092858511        0.6289049090
 H         -9.5977962466        3.4269465356       -1.3102322552
 H         -9.1374288873        5.8581640763       -1.4166984373
 H         -7.1666759555        6.7856883807       -0.2546305314
 H         -5.6941122902        5.2932301135        1.0445508242
 H         -6.1638326399        2.8942087710        1.1715635379
 H         -5.7903887077        1.7606935567       -1.7586784931
 H         -3.3209952207        1.8430885681       -1.7504260642
 H         -2.7166621679        3.1508681986        0.5935791055
 H         -1.4840669290        5.2197711101        1.0501619463
 H          0.9831127104        5.2198284799        1.0725225997
 H          2.2255197003        3.1582623754        0.6226775705
 H          2.8093579506       -0.4911703228        1.7640153015
 H          5.2572144209       -0.5774742455        1.7236557612
 H          9.1751398105        3.7236543016       -0.7944667317
 H         11.3083262954        4.9870991161       -1.0377587468
 H         13.4511176095        3.7691321568       -0.9001138193
 H         13.5013845171        1.3777624781       -0.5580712394
 H         13.4794939689       -0.5728273440       -0.4517907898
 H         13.4589125736       -2.9852369529       -0.2431224462
 H         11.3160135738       -4.2062508440       -0.0441817426
 H          9.2096155203       -2.9678319969       -0.0048006876
 H          5.8685128168       -1.8631836317       -1.4729659651
 H          4.7584739304       -4.0021453811       -0.9344119351
 H          5.2957183478       -5.1755995736        1.1686789542
 H          6.9434325554       -4.2113319165        2.7306678547
 H          8.0435330159       -2.0652299707        2.1972225929
 H          5.2936796915        1.9428942292       -1.7241007561
 H          2.8208263580        2.0251906872       -1.6823149982
 H          2.2303270913       -1.6440847604       -0.5580847537
 H          0.9927322882       -3.7112404248       -0.9913306057
 H         -1.4733784446       -3.7238145410       -0.9377447596
 H         -2.7105786776       -1.6624830186       -0.4658891866
 H         -3.2566527382       -0.3676830802        1.8996716058
 H         -5.7234692270       -0.4393616511        1.9036165651
 H         -5.9514402168       -1.5958368998       -1.3531894842
 H         -4.8373905125       -3.7601091984       -1.0434130316
 H         -5.6369250959       -5.3327305367        0.6834391525
 H         -7.5674633701       -4.7253307142        2.0962239121
 H         -8.6734031429       -2.5426828242        1.8040602888
 H         -9.5896550419       -2.8187686827       -0.8839011484
 H        -11.6475338157       -4.1546749893       -0.9491784722
