  108
 
 C          2.5700894887      -10.5758500569       -2.8860736146
 C          2.5721115092       -9.8806030681       -1.5289318754
 C          2.2252230120       -8.3981941845       -1.6571536709
 C          2.3180815079       -7.6309447114       -0.3372790385
 C          1.2401683952       -8.0338957381        0.6674857733
 C          1.2966277232       -7.1987357892        1.9478165137
 N          1.0257197458       -5.7982016809        1.6966999404
 C          1.9838719520       -4.8027149632        1.7140686955
 O          3.1534979429       -4.9811499617        1.9662781606
 C          1.2801714811       -3.5354583345        1.3635517679
 C          2.0049510245       -2.2909363243        1.1848923969
 C          3.0992239082       -1.9813359271        1.9962622361
 C          3.7953155688       -0.8043434887        1.8141276669
 C          3.4389234323        0.0916208254        0.8064576614
 C          4.1855378729        1.3409187632        0.6125953435
 C          4.4881651265        1.8000967806       -0.6689077188
 C          5.1892020324        2.9746892143       -0.8543249862
 C          5.6064058174        3.7214161796        0.2445833697
 N          6.3203773751        4.9144695895        0.0609366728
 C          6.0163277793        6.1346927751        0.6317756375
 C          4.9502615577        6.4884984390        1.4472843465
 C          4.8651278735        7.8031498975        1.8646469099
 C          5.8096080809        8.7522998465        1.4781991450
 C          6.8592603818        8.4117188467        0.6481803870
 C          6.9661042055        7.0961506862        0.2149543455
 C          7.8900384022        6.4105309671       -0.6451014842
 C          9.0305769291        6.8065402375       -1.3322846665
 C          9.7211423237        5.8638536756       -2.0679072499
 C          9.2950816188        4.5376527360       -2.1126307954
 C          8.1635233369        4.1196943797       -1.4383298691
 C          7.4523428591        5.0674451121       -0.7153048148
 C          5.3089494632        3.2712498242        1.5284175669
 C          4.6085675855        2.0953085211        1.7064782420
 C          2.3571679895       -0.2296649092       -0.0161513584
 C          1.6479438452       -1.3952514436        0.1715119487
 C         -0.0369418253       -3.8214247694        1.1872163079
 C         -1.1657315945       -2.9455441795        0.9344015747
 C         -1.2187608991       -1.6648178605        1.4944189305
 C         -2.3078709207       -0.8498793083        1.2791324849
 C         -3.3779996036       -1.2757203247        0.4891820296
 C         -4.5349444035       -0.4022991521        0.2566704070
 C         -5.1425743881       -0.3402339888       -0.9970742337
 C         -6.2302197611        0.4801358484       -1.2186153258
 C         -6.7387213311        1.2630472463       -0.1852077439
 N         -7.8413228460        2.1003726558       -0.4079511201
 C         -7.9641634283        3.0183842461       -1.4326653649
 C         -7.0560130345        3.3641729653       -2.4238647904
 C         -7.4244289902        4.3468238607       -3.3229433119
 C         -8.6616135503        4.9829187687       -3.2396396821
 C         -9.5591136186        4.6611882969       -2.2408203565
 C         -9.2114905488        3.6762341413       -1.3248863893
 C         -9.8698618433        3.1166745690       -0.1772895344
 C        -11.1050829236        3.3382706315        0.4185176989
 C        -11.4476254729        2.5931523456        1.5294400483
 C        -10.5821227102        1.6262858190        2.0377040977
 C         -9.3482348503        1.3878695104        1.4628572985
 C         -8.9878257205        2.1506485722        0.3605261336
 C         -6.1402388725        1.2067539924        1.0710091490
 C         -5.0530423411        0.3838945728        1.2854958362
 C         -3.3240034763       -2.5537606471       -0.0667615145
 C         -2.2428135187       -3.3803590338        0.1579367573
 C         -0.2217742019       -5.2872332490        1.3952197062
 O         -1.2391871206       -5.9402037830        1.3505711845
 H          2.8142974146      -11.6301368037       -2.7758441066
 H          3.3025472557      -10.1212672181       -3.5502593486
 H          1.5902712533      -10.4972302712       -3.3530199649
 H          1.8502807355      -10.3744713721       -0.8765212484
 H          3.5597605622       -9.9799255595       -1.0723687315
 H          1.2149763207       -8.2965799685       -2.0614285022
 H          2.9135524832       -7.9400368290       -2.3720332256
 H          3.3035248761       -7.7877720584        0.1079459696
 H          2.2237722253       -6.5620922891       -0.5503635309
 H          1.3650440329       -9.0789590861        0.9503017664
 H          0.2519515069       -7.9191918745        0.2166344139
 H          0.5518988591       -7.5640002885        2.6612765183
 H          2.2921439914       -7.2480146266        2.3960388483
 H          3.3940660622       -2.6664393218        2.7760489748
 H          4.6427232738       -0.5862030766        2.4469382983
 H          4.1837276291        1.2220547919       -1.5286413154
 H          5.4089738947        3.3267471890       -1.8513059248
 H          4.2041480866        5.7650787775        1.7395073295
 H          4.0461714343        8.1028146001        2.5024738205
 H          5.7097561183        9.7695295480        1.8279041843
 H          7.5824218379        9.1506349500        0.3363236924
 H          9.3696241355        7.8307631247       -1.2848992489
 H         10.6097723032        6.1516106244       -2.6106601505
 H          9.8646397563        3.8192689372       -2.6843303535
 H          7.8520832980        3.0863667240       -1.4662457071
 H          5.6415844931        3.8419557884        2.3827164359
 H          4.3724452027        1.7641445442        2.7067470446
 H          2.0605112575        0.4535712014       -0.7979476350
 H          0.8175810840       -1.6336261805       -0.4756600188
 H         -0.4026685165       -1.3244123872        2.1134185186
 H         -2.3253807823        0.1389565631        1.7124389859
 H         -4.7493568385       -0.9308913660       -1.8109280119
 H         -6.7001754456        0.5109406484       -2.1903686894
 H         -6.0884541834        2.8897168976       -2.4877679544
 H         -6.7366143863        4.6309633521       -4.1062075100
 H         -8.9139378505        5.7437532149       -3.9638142204
 H        -10.5110634102        5.1656224208       -2.1667833650
 H        -11.7824605286        4.0761605467        0.0149429802
 H        -12.4025204120        2.7518293919        2.0090569513
 H        -10.8840539978        1.0476080082        2.8987013490
 H         -8.6932033758        0.6244081526        1.8547763443
 H         -6.5250861791        1.8204477606        1.8718795994
 H         -4.6087552220        0.3375480601        2.2685247677
 H         -4.1502231861       -2.9125048766       -0.6623199793
 H         -2.2222634215       -4.3688158258       -0.2742839124
