  113
 
 C         -0.1731683409        2.2008653890        4.8658802034
 C          0.2310751484        1.4078298594        3.6606066759
 C          1.3036190748        0.5278707992        3.7013396087
 C          1.6673088003       -0.2027840046        2.5900419478
 C          0.9522721737       -0.1001108926        1.3948620057
 C         -0.1332977092        0.7765141796        1.3482527855
 C         -0.4695034064        1.5165266578        2.4696966296
 C         -0.9770331552        0.9447567807        0.0948382808
 C         -2.3954393055        0.5740676520        0.4561669324
 C         -2.6989998212       -0.7643890861        0.6821995533
 C         -3.9829227571       -1.1598515150        0.9884968324
 C         -5.0107584465       -0.2207284654        1.0912214726
 C         -6.3962406100       -0.6448534223        1.3556417246
 C         -7.1166817859       -0.0531144355        2.3871754504
 C         -8.4065666093       -0.4590927181        2.6750667943
 C         -8.9937748864       -1.4671608336        1.9289495253
 C         -8.2911369418       -2.0559967523        0.8938513714
 C         -6.9954138387       -1.6530659772        0.5885505457
 C         -6.2894782433       -2.2670521521       -0.5507989456
 C         -5.6894749287       -1.4757400997       -1.5273472953
 C         -5.0151848588       -2.0565389934       -2.5841970964
 C         -4.9333481434       -3.4353718872       -2.6850632482
 C         -5.5425525875       -4.2310204578       -1.7298996834
 C         -6.2190719675       -3.6516439331       -0.6717919423
 C         -4.6996877024        1.1179866162        0.9277181034
 C         -3.4047130081        1.5235154978        0.6055544439
 C         -3.1521479674        2.9657511800        0.4140442480
 O         -3.9809472423        3.8111507247        0.7071513422
 C         -1.8502295284        3.3182540459       -0.1810496124
 C         -1.6474014006        4.6367096611       -0.5952977250
 C         -0.4675025142        5.0148621367       -1.1912706218
 C          0.5543987069        4.0809766418       -1.3739920201
 C          1.8042615154        4.4771555687       -2.0423915819
 C          1.7279699665        5.1673442525       -3.2492480000
 C          2.8695036891        5.5278998636       -3.9393850679
 C          4.1135062465        5.2015657377       -3.4259192591
 C          4.2033554321        4.5215694255       -2.2261959263
 C          3.0623186302        4.1534327376       -1.5181589788
 C          3.2227625273        3.4849411639       -0.2148659827
 C          4.1006685798        2.4125869892       -0.0837692504
 C          4.3063716168        1.8167965386        1.1467595226
 C          3.6440285653        2.2907600610        2.2653782182
 C          2.7614761657        3.3507678099        2.1445473032
 C          2.5502102903        3.9438120669        0.9148082399
 C          0.3559863395        2.7728117150       -0.9507779736
 C         -0.8362206062        2.3767833406       -0.3627486927
 C         -0.5204927282        0.0296301122       -1.0219750559
 C         -1.2483914765        0.0334228505       -2.2025624912
 C         -0.9141809190       -0.7791368569       -3.2728552805
 C         -1.7088834411       -0.7693387220       -4.5431290905
 C          0.1824982589       -1.6214528867       -3.1294410882
 C          0.9178307495       -1.6419373818       -1.9642076747
 C          0.5863280442       -0.8091859624       -0.8910083107
 N          1.3208960520       -0.8443475437        0.2841191299
 C          2.4802490781       -1.6626069393        0.3441340147
 C          2.4716473456       -2.8582648134        1.0507282375
 C          3.6089258197       -3.6396928362        1.1002264610
 C          4.7822939571       -3.2646390451        0.4486384995
 C          6.0048608973       -4.1643989774        0.5340720098
 C          7.2068796839       -3.6015777331       -0.2292008981
 C          5.6574964391       -5.5352612817       -0.0635909514
 C          6.4064604508       -4.3252163752        2.0071448904
 C          4.7703566933       -2.0696055669       -0.2611001700
 C          3.6375062124       -1.2769314540       -0.3146373988
 H          0.6856331332        2.4064449397        5.5013729569
 H         -0.6309407270        3.1427404944        4.5719680816
 H         -0.9022707632        1.6433247137        5.4553744569
 H          1.8695792224        0.4156606920        4.6151966837
 H          2.5202274476       -0.8611931081        2.6455406320
 H         -1.3078035272        2.1969771024        2.4111867986
 H         -1.9160897057       -1.5043392639        0.5989855226
 H         -4.1988047124       -2.2053301581        1.1518419516
 H         -6.6475585871        0.7214888082        2.9764126479
 H         -8.9522754770        0.0080641720        3.4814867433
 H        -10.0005606386       -1.7902122279        2.1494710152
 H         -8.7556248531       -2.8263940970        0.2948319656
 H         -5.7615698176       -0.4001951100       -1.4593124149
 H         -4.5505684463       -1.4307126818       -3.3313275093
 H         -4.4000325882       -3.8892094333       -3.5075573434
 H         -5.4875330170       -5.3074584232       -1.8071620231
 H         -6.6804657582       -4.2746070915        0.0816947419
 H         -5.4629929856        1.8781985254        1.0136783772
 H         -2.4476915967        5.3450205452       -0.4381579267
 H         -0.3175043712        6.0379970019       -1.5043302720
 H          0.7551708628        5.4024757016       -3.6566923433
 H          2.7894440253        6.0605696574       -4.8754066541
 H          5.0116206988        5.4815375010       -3.9565114896
 H          5.1736827068        4.2881073828       -1.8116054381
 H          4.6198853515        2.0443714833       -0.9581818402
 H          4.9882190529        0.9829513783        1.2343332463
 H          3.8184739123        1.8383986638        3.2292428594
 H          2.2398454705        3.7203897981        3.0144799622
 H          1.8766382401        4.7838500866        0.8292508480
 H          1.1390896911        2.0435671625       -1.0998021059
 H         -2.1014986801        0.6941297795       -2.2767001942
 H         -1.0578077001       -0.6043415385       -5.4006706036
 H         -2.2078565628       -1.7281579310       -4.6847411589
 H         -2.4615834807        0.0148983447       -4.5226417388
 H          0.4630131804       -2.2755597358       -3.9424831354
 H          1.7567004924       -2.3154184643       -1.8769566257
 H          1.5716474548       -3.1686921555        1.5614409901
 H          3.5714327623       -4.5630062455        1.6580626176
 H          6.9844194870       -3.4958938350       -1.2885068472
 H          8.0490919906       -4.2833027543       -0.1305425631
 H          7.5088097709       -2.6364739661        0.1711709473
 H          5.3501588674       -5.4261118327       -1.1016737439
 H          6.5258125963       -6.1895378458       -0.0279215314
 H          4.8490438532       -6.0134488381        0.4823207327
 H          6.6316562582       -3.3544307252        2.4440535136
 H          5.6116790087       -4.7843390860        2.5883078226
 H          7.2914925813       -4.9526730881        2.0867963366
 H          5.6495665874       -1.7336972893       -0.7859594220
 H          3.6425200176       -0.3532350622       -0.8736432171
