  141
 
 C        -12.6085066105       -4.1909726311        2.4691436565
 C        -12.7421909631       -3.6730563149        1.0291289033
 C        -14.1359825182       -3.0560837853        0.8753993559
 C        -12.6299259786       -4.8452959914        0.0427462823
 C        -11.6260874539       -2.6750150162        0.7495609697
 C        -10.2944259352       -3.0994592254        0.8616568093
 C         -9.2185780078       -2.2665142358        0.6308227504
 C         -9.4776495902       -0.9505893489        0.2787898067
 C        -10.8081746506       -0.5024484357        0.1365118263
 C        -11.8716814716       -1.3636635249        0.3766575592
 C        -10.7322716423        0.8720744183       -0.2764420310
 C        -11.6953861208        1.8364536791       -0.5466271869
 C        -11.3073545031        3.1170483667       -0.9050782959
 C        -12.3078758420        4.2241072038       -1.2103998913
 C        -12.0733866312        4.7412028266       -2.6376668151
 C        -13.7606809292        3.7479264876       -1.1126356714
 C        -12.1133015373        5.3690801644       -0.2048491829
 C         -9.9368738211        3.4051576523       -0.9733522718
 C         -8.9584572001        2.4676587074       -0.7123692329
 C         -9.3596887162        1.1842933295       -0.3738522835
 N         -8.6087711323        0.0758363295       -0.0347848466
 C         -7.2086383357        0.0136564166        0.0028085916
 C         -6.4575151286        0.4189864496       -1.0972094540
 C         -5.0787172635        0.3685087654       -1.0520440219
 C         -4.4157157368       -0.0822262238        0.0879661983
 C         -2.9466937938       -0.1085033473        0.1389591271
 C         -2.2689612683        0.3518516475        1.2658546175
 C         -0.8889430609        0.3570014047        1.3054122778
 C         -0.1445892620       -0.1222995673        0.2306808251
 C          1.3274768850       -0.0855681943        0.2658851277
 C          1.9594562014        1.1143514201        0.5682366243
 C          3.3418466152        1.2488236670        0.5514529187
 C          3.9338964862        2.5733784401        0.8115529183
 C          4.8518780803        3.1294647763       -0.0757779869
 C          5.3889334986        4.3805768506        0.1633541310
 C          5.0182722132        5.0946466537        1.2912618772
 C          4.0979960579        4.5546239778        2.1741859949
 C          3.5551124959        3.3053911610        1.9336653443
 C          4.1258241009        0.1307270445        0.2351491192
 C          5.5968963750        0.1886172820        0.2369336471
 C          6.3215780053       -0.3195003286       -0.8382755474
 C          7.7010868177       -0.2655926967       -0.8564268201
 C          8.3975831026        0.2860393690        0.2171975481
 C          9.8468297792        0.4001185349        0.2496332490
 N         10.4651989892        1.4207272092        0.7938193872
 C         11.7934404999        1.1891910460        0.6211795375
 C         12.8805128219        2.0260474847        0.9999553847
 C         12.6644963332        3.2596063544        1.6246089834
 C         13.7248356747        4.0675056608        1.9521742187
 C         15.0205240240        3.6506386091        1.6517896313
 C         15.2451457056        2.4377764286        1.0429691484
 C         14.1883884807        1.5784898409        0.7025004305
 C         14.3949020391        0.2773206144        0.0890630261
 C         15.6820708024       -0.2284000145       -0.1451090040
 C         15.8900477194       -1.4731431600       -0.6910766806
 C         14.8057720793       -2.2823652205       -1.0161966930
 C         13.5286471301       -1.8231774827       -0.8068101110
 C         13.2936693560       -0.5467056883       -0.2750190303
 C         11.9909233804       -0.0232573204       -0.0373715791
 N         10.7274239692       -0.5156228300       -0.2814471588
 C         10.3580275595       -1.7175096887       -0.9246937916
 C          9.7140183855       -2.7143392207       -0.2017215943
 C          9.3240504732       -3.8790645842       -0.8394842140
 C          9.5739050463       -4.0513581226       -2.1909627022
 C         10.2158926885       -3.0557135514       -2.9106357236
 C         10.6066744145       -1.8863455600       -2.2839067093
 C          7.6728463372        0.7944281056        1.2971420867
 C          6.2958808519        0.7428439075        1.3083711833
 C          3.4937341125       -1.0712015944       -0.0608512404
 C          2.1106955075       -1.2040711338       -0.0488268506
 C          1.5100248014       -2.5208350187       -0.3263264794
 C          0.5555677844       -3.0637126383        0.5303120735
 C          0.0055251119       -4.3053027172        0.2714594247
 C          0.3992648020       -5.0235691889       -0.8459089758
 C          1.3545182968       -4.4964789559       -1.6989817230
 C          1.9098440994       -3.2567044235       -1.4388433850
 C         -0.8209560550       -0.5911227148       -0.8928334094
 C         -2.2001708887       -0.5762994301       -0.9408162149
 C         -5.1763288598       -0.4920330493        1.1814262439
 C         -6.5556069769       -0.4477728412        1.1425566975
 H        -12.6586433467       -3.3619847393        3.1727453341
 H        -11.6649315588       -4.7083444549        2.6193376789
 H        -13.4161122974       -4.8847086991        2.6946658260
 H        -14.8915628059       -3.8093735300        1.0907305178
 H        -14.2769638801       -2.2305990557        1.5696655910
 H        -14.2970354173       -2.7007696088       -0.1399754587
 H        -12.7068289437       -4.4835604575       -0.9809838550
 H        -11.6813548801       -5.3645235549        0.1492113452
 H        -13.4312752299       -5.5606016587        0.2175012198
 H        -10.0871745334       -4.1226957355        1.1367738244
 H         -8.2074956640       -2.6373082083        0.7138215972
 H        -12.8746832586       -0.9878643380        0.2607875368
 H        -12.7343398505        1.5639111630       -0.4636608101
 H        -12.1841152129        3.9296299697       -3.3545184893
 H        -11.0776205176        5.1612139350       -2.7499453778
 H        -12.7978104275        5.5166293535       -2.8790373254
 H        -13.9939419396        3.4059141132       -0.1067699786
 H        -13.9568093466        2.9434827787       -1.8181564126
 H        -14.4291818776        4.5735765617       -1.3494324145
 H        -12.8342153787        6.1619998662       -0.3945051284
 H        -11.1152369586        5.7930752923       -0.2747641191
 H        -12.2583243129        5.0058259415        0.8109288266
 H         -9.6187619340        4.4028722744       -1.2359668538
 H         -7.9132354455        2.7352625651       -0.7606981103
 H         -6.9622685549        0.7652366640       -1.9871391455
 H         -4.5051429201        0.6975160816       -1.9062417565
 H         -2.8310016063        0.7328159427        2.1065181851
 H         -0.3774323170        0.7223423453        2.1849391070
 H          1.3531031218        1.9839910050        0.7795451943
 H          5.1367463248        2.5802395092       -0.9614913602
 H          6.1009737577        4.7998020483       -0.5329895366
 H          5.4432501308        6.0698503454        1.4794497348
 H          3.8031216526        5.1086454732        3.0540764070
 H          2.8453658006        2.8813521800        2.6301582008
 H          5.7951888268       -0.7353765538       -1.6854156073
 H          8.2318877852       -0.6314488093       -1.7220302601
 H         11.6451293003        3.5494560039        1.8299894472
 H         13.5608013619        5.0206892151        2.4333019437
 H         15.8582449225        4.2866924646        1.8996148939
 H         16.2642876779        2.1598961182        0.8260223976
 H         16.5451271353        0.3625184308        0.1156001668
 H         16.8970932082       -1.8273620187       -0.8563039461
 H         14.9658904453       -3.2687552980       -1.4261184543
 H         12.6915530249       -2.4598502298       -1.0438085174
 H          9.5225539602       -2.5681934103        0.8512227614
 H          8.8250077319       -4.6531695910       -0.2763974906
 H          9.2688188617       -4.9614225191       -2.6847534650
 H         10.4104357020       -3.1860447640       -3.9646104492
 H         11.1059909474       -1.1021677858       -2.8348819263
 H          8.2144869914        1.2297239831        2.1228976126
 H          5.7522545797        1.1288015045        2.1576298077
 H          4.1002292636       -1.9410681801       -0.2704816878
 H          0.2528839022       -2.5119561512        1.4082968378
 H         -0.7337898411       -4.7149593430        0.9447859552
 H         -0.0351519758       -5.9916092461       -1.0494440422
 H          1.6668974776       -5.0532338738       -2.5711484208
 H          2.6463416271       -2.8426205319       -2.1131618069
 H         -0.2572691034       -0.9571521783       -1.7385636364
 H         -2.7086245105       -0.9484218934       -1.8185882627
 H         -4.6799587959       -0.8581542850        2.0682855030
 H         -7.1364169846       -0.7569436955        1.9991589473
