  34
 
 Br         5.7294860381        3.0458650577       -0.0000507191
 C          4.9811043519        1.2908611471        0.0000071437
 C          5.8208665785        0.1859380175       -0.0000114802
 C          5.2031120699       -1.0547659359       -0.0000271766
 C          3.8198787801       -1.1326676009       -0.0000164897
 C          3.0748256172        0.0522297080       -0.0000182697
 C          1.6256154943        0.0721920290       -0.0000104126
 N          0.8899235528        1.1601465964       -0.0000030581
 C         -0.3992551408        0.7443719535       -0.0000003058
 C         -1.5933185571        1.5226039063        0.0000031891
 C         -1.6081258176        2.9225410495        0.0000008595
 C         -2.8210902827        3.5713797896        0.0000035349
 C         -3.9861637855        2.7973476821        0.0000092909
 N         -3.9943660251        1.4866005415        0.0000137328
 C         -2.8292283057        0.8317679574        0.0000100525
 C         -2.8703741496       -0.6199498313        0.0000134206
 N         -4.0663652866       -1.2108898305        0.0000203821
 C         -4.1358783344       -2.5198034628        0.0000214975
 C         -3.0171250300       -3.3580995426        0.0000174323
 C         -1.7699059808       -2.7784868859        0.0000106176
 C         -1.6690857641       -1.3799167411        0.0000081719
 C         -0.4514521881       -0.6531084783        0.0000014768
 N          0.8499548681       -1.0627772673       -0.0000029445
 N          3.6766230665        1.2423445004       -0.0000128535
 H          6.8924290374        0.2975212089       -0.0000152746
 H          5.7992663709       -1.9546835970       -0.0000138366
 H          3.3393109696       -2.0977238031       -0.0000062083
 H         -0.6678661723        3.4531387105       -0.0000038179
 H         -2.8807267219        4.6484347839        0.0000014301
 H         -4.9621354943        3.2662256764        0.0000094504
 H         -5.1365155369       -2.9323101838        0.0000250588
 H         -3.1358657466       -4.4300371050        0.0000182431
 H         -0.8777208461       -3.3888574461        0.0000078671
 H          1.1701703710       -2.0174356039       -0.0000070044
