  70
 
 O         -4.2529572230       -3.7884424206        1.0345045202
 C         -3.1024381695       -4.1020119008        1.2193303950
 C         -1.9865135900       -3.1714460145        1.3745290701
 C         -2.1931910462       -1.8441140542        1.4895672300
 C         -1.0355780492       -0.9304704035        1.6689008364
 C          0.1831578798       -1.4118895266        0.8767660902
 C          0.1182352358       -1.3333142563       -0.6304838466
 C          0.8040202078       -2.3167938346       -1.3531366810
 C          0.8216877543       -2.3522030099       -2.7320941651
 C          0.1279742737       -1.3981447947       -3.4564619206
 C         -0.5608370658       -0.4200829111       -2.7716177059
 C         -0.5602397912       -0.3662780651       -1.3772254113
 N         -1.3044020298        0.6856087969       -0.7632402177
 C         -2.6782937916        0.4428603721       -0.5908683747
 C         -3.2858302349       -0.6929661747       -1.1240542161
 C         -4.6298736843       -0.9475387473       -0.9140089909
 C         -5.4040768687       -0.0673372805       -0.1804670470
 C         -4.8202882357        1.0701702001        0.3486785852
 C         -3.4713041442        1.3136053996        0.1571889978
 S         -2.7455315563        2.7342777243        0.9335272294
 C         -1.4783948662        3.0548096239       -0.2609769611
 C         -1.0954942504        4.3673777907       -0.4689027460
 C         -0.0436404165        4.6617907278       -1.3173012018
 C          0.6326254452        3.6252731141       -1.9322724939
 C          0.2360546867        2.3139504427       -1.7421740429
 C         -0.8509948084        1.9991239880       -0.9283092659
 P          1.6575589632       -0.5215617425        1.6472278207
 O          1.7775797067       -0.9211456926        3.0540154164
 C          3.0856206374       -1.0137706769        0.6326969883
 C          4.0658234209       -1.7547401696        1.2794663869
 C          5.1759696448       -2.1999155665        0.5842387014
 C          5.3083866783       -1.9033407709       -0.7622617523
 C          4.3343056603       -1.1594258661       -1.4097034601
 C          3.2225944589       -0.7136766758       -0.7182596289
 C          1.4824493641        1.2920597452        1.5193779437
 C          0.6058828876        1.8815717207        2.4241697972
 C          0.5030629370        3.2570945526        2.5029985812
 C          1.3011162939        4.0554766884        1.7007411467
 C          2.2015306659        3.4727767523        0.8265662682
 C          2.2922747414        2.0950690570        0.7301030610
 C          0.4121603357       -2.8510281300        1.2942167843
 C         -0.6208555359       -3.6683445451        1.4800590674
 H         -2.8072538331       -5.1697193918        1.2740963781
 H         -3.1968684990       -1.4488828678        1.5190544237
 H         -1.2916857948        0.1029851009        1.4533934049
 H         -0.7429387409       -0.9841617440        2.7298747062
 H          1.3420897611       -3.0817639206       -0.8168826631
 H          1.3706629890       -3.1309943827       -3.2391287182
 H          0.1160840460       -1.4202765500       -4.5353474428
 H         -1.1268795223        0.3270880610       -3.3105313871
 H         -2.6999108709       -1.3968603496       -1.6937972472
 H         -5.0646273815       -1.8476307702       -1.3182332335
 H         -6.4501684865       -0.2663139239       -0.0112462776
 H         -5.3959625380        1.7696545291        0.9350554404
 H         -1.6210982417        5.1501278242        0.0560178420
 H          0.2526130684        5.6863817848       -1.4779017312
 H          1.4754312602        3.8306355157       -2.5750112276
 H          0.7832575718        1.5260118612       -2.2352381317
 H          3.9397601386       -1.9677860652        2.3316241295
 H          5.9362223061       -2.7766106311        1.0900236179
 H          6.1726906196       -2.2498211811       -1.3094707821
 H          4.4403831607       -0.9273212839       -2.4594609843
 H          2.4641478704       -0.1391151854       -1.2281594828
 H          0.0265575287        1.2574861415        3.0876722152
 H         -0.1913485709        3.7055902263        3.1974641764
 H          1.2334387243        5.1308517844        1.7687817128
 H          2.8434648556        4.0931078877        0.2188039086
 H          3.0101979521        1.6542482429        0.0555981972
 H          1.4322401572       -3.1917885716        1.4101000102
 H         -0.4798340520       -4.7080346068        1.7377983581
