  90
 
 O          8.1702280218        2.9524688710        0.3739364188
 C          7.8429378050        1.7567994033        0.2520904393
 C          8.7377847607        0.5941353437        0.1416684742
 C         10.1230865074        0.5407257566        0.1479482278
 C         10.7381899788       -0.6978706166        0.0359189451
 C          9.9922825758       -1.8648195544       -0.0807781896
 C          8.6034248920       -1.8257807358       -0.0906886331
 C          7.9843578592       -0.5953406933        0.0199178530
 C          6.5854939973       -0.2331459912        0.0432741690
 N          5.5262162597       -0.9591438779       -0.0410378681
 C          4.3097445859       -0.3658915584        0.0111571401
 C          3.1413164541       -1.1170177987       -0.0672376672
 C          1.8906297978       -0.5260365813       -0.0032268313
 C          0.6876932711       -1.3663792089       -0.0133110422
 C          0.5384951977       -2.3923114110       -0.9470248703
 C         -0.5999327588       -3.1690474907       -0.9739383665
 C         -1.6230175693       -2.9576870988       -0.0459471753
 N         -2.7879821801       -3.7231549721       -0.0791551423
 C         -4.0167324287       -3.1416347980        0.2570413591
 C         -4.2996088009       -1.8247736872       -0.1097718156
 C         -5.5109406996       -1.2540514845        0.2287578012
 C         -6.4593661821       -1.9836371003        0.9286158364
 C         -6.1859666046       -3.2937166540        1.2894646768
 C         -4.9748678763       -3.8721391335        0.9611837914
 C         -2.7358399507       -5.0706114005       -0.4569789542
 C         -1.6711880568       -5.8772763123       -0.0527652079
 C         -1.6230170668       -7.2047068309       -0.4322969590
 C         -2.6317979529       -7.7487063658       -1.2119522307
 C         -3.6935950101       -6.9524415013       -1.6119617310
 C         -3.7489884711       -5.6226646527       -1.2419601288
 C         -1.4581522969       -1.9590742556        0.9181580990
 C         -0.3266476525       -1.1751104578        0.9270683039
 C          1.7973574259        0.8851679338        0.1154784128
 C          0.4877931141        1.5572582905        0.0857715948
 C         -0.4221079743        1.2943127927       -0.9380332086
 C         -1.6453522770        1.9274561366       -0.9769165935
 C         -2.0033432580        2.8359784903        0.0219534789
 N         -3.2529912564        3.4578286790        0.0054659608
 C         -3.8283188850        3.8577423459       -1.2050780866
 C         -5.2092067979        3.7766943053       -1.3925489207
 C         -5.7730860232        4.1763735761       -2.5886056771
 C         -4.9751733715        4.6568054634       -3.6151306770
 C         -3.6032141393        4.7385861639       -3.4344993210
 C         -3.0297116573        4.3468938600       -2.2404253646
 C         -3.9262515030        3.6873575825        1.2127765459
 C         -3.8959022723        2.7276942671        2.2254991973
 C         -4.5584997919        2.9543877039        3.4162549612
 C         -5.2608550917        4.1328653465        3.6146763851
 C         -5.2964047761        5.0873195847        2.6101002760
 C         -4.6342454943        4.8719964714        1.4166886928
 C         -1.0886867928        3.1121261501        1.0409670030
 C          0.1417370018        2.4900976030        1.0617205606
 C          2.9410919831        1.6466000584        0.2079001327
 C          4.2203803740        1.0660570420        0.1642191051
 N          5.3257006346        1.7984431996        0.2459335300
 C          6.5075349157        1.2135632376        0.1895669483
 H         10.6979616497        1.4502219544        0.2400731159
 H         11.8168149021       -0.7552129029        0.0400947793
 H         10.4985666582       -2.8145519098       -0.1654708572
 H          8.0162750943       -2.7267770354       -0.1816130006
 H          3.2354207881       -2.1894849624       -0.1496024278
 H          1.3108784172       -2.5542615757       -1.6844213436
 H         -0.7125357730       -3.9358886153       -1.7259692791
 H         -3.5669981699       -1.2606862337       -0.6672532683
 H         -5.7197419467       -0.2361067902       -0.0650542812
 H         -7.4054183002       -1.5346493237        1.1905745210
 H         -6.9177479833       -3.8678128024        1.8384774527
 H         -4.7593895890       -4.8892079404        1.2539323501
 H         -0.8906893876       -5.4576055490        0.5648313281
 H         -0.7964783710       -7.8208708657       -0.1102097676
 H         -2.5908296493       -8.7866807665       -1.5055515390
 H         -4.4805454676       -7.3678700315       -2.2240830037
 H         -4.5706884656       -5.0000761193       -1.5640988490
 H         -2.2236858338       -1.8116819243        1.6651613944
 H         -0.2092598449       -0.4193282948        1.6885078764
 H         -0.1593595259        0.5915938672       -1.7142794708
 H         -2.3396785650        1.7146007615       -1.7760937280
 H         -5.8326084267        3.3956111071       -0.5972173159
 H         -6.8424869442        4.1055844761       -2.7229128708
 H         -5.4190901328        4.9668126118       -4.5489902511
 H         -2.9749035717        5.1200755777       -4.2259843986
 H         -1.9619231754        4.4255624005       -2.0974403732
 H         -3.3563308132        1.8056183171        2.0670976608
 H         -4.5321519938        2.2029708405        4.1916115608
 H         -5.7775195370        4.3066286608        4.5464625555
 H         -5.8361621036        6.0107755296        2.7598555920
 H         -4.6526417555        5.6215139465        0.6392342098
 H         -1.3473543345        3.8256006711        1.8093514914
 H          0.8418162510        2.7142682382        1.8533327359
 H          2.8821893413        2.7218186013        0.2851646426
