  107
 
 C          2.2484029521       -4.9829346471       -1.6939618013
 C          0.9688953386       -4.9612873035       -2.5474965253
 C         -0.2132710303       -5.4804850067       -1.7110529156
 C          1.1697091703       -5.9139133547       -3.7291249402
 C          0.6830840210       -3.5394518608       -2.9754461911
 C          0.5955124588       -3.1401608865       -4.3346388516
 C          0.3312848808       -1.8586133077       -4.7095173182
 C          0.1285455843       -0.8574707352       -3.7061192866
 C          0.2152842533       -1.2683645337       -2.3167843913
 C          0.4881128766       -2.5503823338       -1.9761693531
 C         -0.0065270669       -0.0706699700       -1.4119750430
 C          1.2509989601        0.1042690274       -0.5894037933
 C          2.3021417183        0.8838238315       -1.0573118198
 C          3.4857834796        0.9736589138       -0.3516128821
 C          3.6415549057        0.2771457403        0.8426257731
 N          4.8406551412        0.3628274812        1.5634735693
 C          5.5793688415       -0.7062425291        2.0275905852
 C          5.3667107409       -2.0669924713        1.8572306102
 C          6.2856105295       -2.9372628313        2.4112667064
 C          7.3965742086       -2.4730422183        3.1122161117
 C          7.6265465488       -1.1200151500        3.2637620984
 C          6.7174246668       -0.2252768951        2.7154966402
 C          6.6506004225        1.2084238755        2.6607271841
 C          7.4566310761        2.2227793103        3.1596725054
 C          7.0830217769        3.5336567014        2.9392943786
 C          5.9151229765        3.8387331119        2.2437047302
 C          5.0966559293        2.8472624541        1.7378114315
 C          5.4785601833        1.5280350612        1.9366888510
 C          2.5947079213       -0.5096589935        1.3153021743
 C          1.4172058793       -0.5969076645        0.6009021248
 C         -1.2607091941       -0.1648797476       -0.5713205091
 C         -1.4229059659        0.6498219622        0.5449714418
 C         -2.5978064557        0.6331664365        1.2687104043
 C         -3.6458802640       -0.1965750027        0.8795855786
 N         -4.8424846963       -0.2107792133        1.6095172366
 C         -5.4780641718       -1.3333333508        2.0991474157
 C         -5.0954744318       -2.6655526836        2.0315273400
 C         -5.9112554577       -3.6021649768        2.6365714407
 C         -7.0771801796       -3.2299946111        3.3021746696
 C         -7.4514729743       -1.9039363772        3.3918439972
 C         -6.6481211785       -0.9438523277        2.7914985559
 C         -6.7162084485        0.4881159788        2.7030965904
 C         -7.6245267152        1.4325452013        3.1620839232
 C         -7.3963502529        2.7638222304        2.8754010805
 C         -6.2879352524        3.1564846059        2.1281936222
 C         -5.3698598039        2.2358491911        1.6610118896
 C         -5.5807605100        0.8987713912        1.9669958451
 C         -3.4939493521       -1.0074466054       -0.2406619179
 C         -2.3130051040       -0.9870822743       -0.9562532233
 C         -0.2320578762        1.0341370264       -2.4273450684
 C         -0.5053815185        2.3427688251       -2.2110502191
 C         -0.7049678067        3.2306507132       -3.3003630214
 C         -0.9928712083        4.6864848745       -3.0104306893
 C          0.1901386195        5.2862953768       -2.2310787304
 C         -1.1990047002        5.5205590794       -4.2776609518
 C         -2.2702705785        4.7874000181       -2.1594088202
 C         -0.6204976462        2.7024247010       -4.6150105327
 C         -0.3557365574        1.3909685813       -4.8654413403
 C         -0.1493583982        0.4912681937       -3.7708533184
 H          2.4730136173       -6.0013806716       -1.3838667456
 H          3.0895456240       -4.6024061224       -2.2697519116
 H          2.1424508152       -4.3706014439       -0.8027559623
 H         -0.3682617663       -4.8734635196       -0.8233476598
 H         -0.0266533089       -6.5050447350       -1.3960923908
 H         -1.1271795770       -5.4611592455       -2.3013391946
 H          0.2776421310       -5.9630767311       -4.3493595410
 H          1.3738711625       -6.9156770542       -3.3561190828
 H          2.0141479799       -5.6056539994       -4.3412661086
 H          0.7458318990       -3.8779634879       -5.1063541681
 H          0.2773499897       -1.5826641670       -5.7515267426
 H          0.5506536662       -2.8242257870       -0.9336008148
 H          2.1933532428        1.4204969292       -1.9882921837
 H          4.3026875490        1.5687982112       -0.7316528174
 H          4.5187501660       -2.4348696442        1.2993213871
 H          6.1415148101       -4.0013793202        2.2949305422
 H          8.0902671597       -3.1856657775        3.5330303590
 H          8.4962504179       -0.7604543078        3.7927705962
 H          8.3538899427        1.9864743717        3.7115867025
 H          7.6972800911        4.3375194485        3.3169259334
 H          5.6416437167        4.8736615539        2.0994491803
 H          4.1851431503        3.0927056231        1.2138973532
 H          2.7060852669       -1.0378110429        2.2507433717
 H          0.6080960761       -1.2031365470        0.9820956854
 H         -0.6126830980        1.2906304913        0.8618003796
 H         -2.7062197691        1.2509300443        2.1479281344
 H         -4.1854599228       -2.9613571553        1.5315557694
 H         -5.6372057114       -4.6461369532        2.5953853712
 H         -7.6893436527       -3.9925849188        3.7602394480
 H         -8.3471883444       -1.6143904926        3.9204063529
 H         -8.4922907905        1.1270558002        3.7270439369
 H         -8.0895056080        3.5144375414        3.2250250540
 H         -6.1452287724        4.2037624429        1.9057450772
 H         -4.5238637580        2.5466912547        1.0666109114
 H         -4.3117933036       -1.6375098775       -0.5570732497
 H         -2.2073182408       -1.6127181902       -1.8303137063
 H         -0.5650986202        2.7158228825       -1.1995712217
 H          1.1025927579        5.2122946130       -2.8192870682
 H          0.0018042844        6.3359850646       -2.0155874813
 H          0.3488655225        4.7678145744       -1.2895393307
 H         -0.3086555512        5.5117266332       -4.9022317934
 H         -2.0442665633        5.1530067609       -4.8549406010
 H         -1.4046239437        6.5531279560       -4.0022102107
 H         -3.1119369417        4.3513468757       -2.6935601283
 H         -2.1605495121        4.2639366287       -1.2136948854
 H         -2.4966018184        5.8304714109       -1.9481735215
 H         -0.7737698904        3.3623259170       -5.4537791783
 H         -0.3042392966        1.0159957033       -5.8761768919
