  112
 
 C         -8.6652155496       -3.4929490153       -2.6654344204
 C         -8.4658312624       -2.2063356339       -3.1378860681
 C         -7.8227270341       -1.2648448674       -2.3591074592
 C         -7.3543438155       -1.5978893362       -1.0869677543
 N         -6.6950872533       -0.6446338270       -0.3078716202
 C         -5.9530239399        0.3676873184       -0.9318371263
 C         -5.1099885342        0.0689433047       -2.0011093136
 C         -4.3782800800        1.0706472053       -2.6057152603
 C         -4.4630433980        2.3767587734       -2.1497546046
 C         -5.3042823875        2.6783490987       -1.0927979547
 C         -6.0542106392        1.6854907399       -0.4926817579
 C         -6.8169999604       -0.6626048577        1.0885446779
 C         -8.0501511459       -0.9623208730        1.6676658685
 C         -8.1967541338       -1.0164245955        3.0391765205
 C         -7.1116404334       -0.7629290307        3.8624189553
 C         -5.8892042913       -0.4458995325        3.2996209833
 C         -5.7181929040       -0.3897636293        1.9207164189
 C         -4.3908734566       -0.0476406661        1.3652548363
 C         -3.8651278047        1.2396710051        1.5554302066
 C         -4.5576789913        2.2376883266        2.2898778667
 C         -4.0470873610        3.4902420183        2.4381184046
 C         -2.8107945923        3.8300855650        1.8542792996
 C         -2.1187918107        2.9068480955        1.1341550314
 C         -2.6151356095        1.5889625085        0.9585220647
 C         -1.9183818762        0.6458264606        0.1930417661
 C         -0.6488728320        1.0241717982       -0.4664722570
 C         -0.6609796496        1.3612411366       -1.8145608176
 C          0.4989409222        1.7209017060       -2.4700344669
 C          1.7196219100        1.7504039297       -1.7942005995
 C          2.9371772090        2.1036242284       -2.4425895282
 C          4.1151838411        2.0951238426       -1.7785934892
 C          4.1844192827        1.7477992375       -0.3971605849
 C          5.4024926791        1.6615986764        0.2940162194
 C          6.6977275163        1.8308998021       -0.3957727688
 C          7.1138829070        3.0675790620       -0.8697542639
 C          8.3569531598        3.2213318574       -1.4579654535
 C          9.2012079597        2.1293698134       -1.5783859131
 C          8.7983737192        0.8880739451       -1.1248495438
 C          7.5478150145        0.7235223837       -0.5348771676
 N          7.1364598790       -0.5461724338       -0.0912755312
 C          7.9864983251       -1.3213648233        0.6920591318
 C          8.9310817901       -0.7185080197        1.5246444981
 C          9.7786206941       -1.4912192253        2.2936075434
 C          9.6981207178       -2.8734271869        2.2566096451
 C          8.7610272096       -3.4778510076        1.4344872965
 C          7.9149238566       -2.7149244451        0.6545712077
 C          5.8528512155       -0.9929925946       -0.4350247575
 C          5.0378438473       -1.6309090935        0.4993351490
 C          3.7521811822       -2.0004694145        0.1595401713
 C          3.2629982007       -1.7543189022       -1.1132768158
 C          4.0789016603       -1.1503106266       -2.0537455901
 C          5.3657850225       -0.7728238353       -1.7215971704
 C          5.4100133446        1.3421063603        1.6471696820
 C          4.2395742473        1.0706707807        2.3233824711
 C          3.0156960448        1.0748591852        1.6537390651
 C          1.7976459104        0.7200616226        2.3013311179
 C          0.6239374958        0.6983380028        1.6299840023
 C          0.5590672667        1.0446987391        0.2479960017
 C          1.7539659101        1.4099596044       -0.4200691293
 C          2.9845174320        1.4213861033        0.2812004222
 C         -2.4276857846       -0.6473079580        0.0276699199
 C         -1.7349101382       -1.6277082985       -0.7291452625
 C         -2.2361110619       -2.8833061822       -0.8821731052
 C         -3.4479671557       -3.2440038205       -0.2597892886
 C         -4.1344613144       -2.3348976950        0.4840811257
 C         -3.6699231481       -1.0034101842        0.6356053562
 C         -7.5623869834       -2.8952554307       -0.6167268991
 C         -8.2129163863       -3.8279467237       -1.4001065335
 H         -9.1709986780       -4.2257982950       -3.2754641751
 H         -8.8231777237       -1.9288833239       -4.1188673430
 H         -7.6835037375       -0.2598952931       -2.7297664709
 H         -5.0288475203       -0.9524022468       -2.3434326012
 H         -3.7340333794        0.8253891600       -3.4380383175
 H         -3.8794991480        3.1558508732       -2.6169091938
 H         -5.3813848641        3.6943058969       -0.7348378500
 H         -6.7199241728        1.9218578951        0.3245193097
 H         -8.8961355965       -1.1527589048        1.0232263296
 H         -9.1606839374       -1.2510565658        3.4655171731
 H         -7.2175787978       -0.8097854922        4.9356268072
 H         -5.0347018614       -0.2545444558        3.9332124268
 H         -5.5093093264        1.9874728656        2.7345336440
 H         -4.5890064939        4.2362325912        3.0012673629
 H         -2.4222726808        4.8301922325        1.9796220649
 H         -1.1739357145        3.1643757204        0.6786136027
 H         -1.6025461787        1.3412449007       -2.3430361356
 H          0.4693942748        1.9818071199       -3.5185272892
 H          2.8971997207        2.3692163426       -3.4898763557
 H          5.0317632283        2.3501037880       -2.2896962992
 H          6.4589940917        3.9190920761       -0.7505397815
 H          8.6685634119        4.1912299553       -1.8153746556
 H         10.1732498942        2.2429928838       -2.0347779155
 H          9.4482730510        0.0305457435       -1.2230208722
 H          8.9951943418        0.3592939283        1.5649548525
 H         10.5031204810       -1.0086549449        2.9335069580
 H         10.3602660874       -3.4739545011        2.8616028632
 H          8.6942923612       -4.5553017404        1.3923854884
 H          7.1957547207       -3.1918409997        0.0049874349
 H          5.4134763470       -1.8108579223        1.4958346358
 H          3.1202072860       -2.4710398979        0.8983380108
 H          2.2517289544       -2.0327996518       -1.3683943305
 H          3.7102763542       -0.9663335249       -3.0521093836
 H          6.0009334851       -0.2932287606       -2.4523475092
 H          6.3558353256        1.2950599334        2.1688268925
 H          4.2664507700        0.8243924905        3.3752688272
 H          1.8375581997        0.4564022176        3.3489347668
 H         -0.2925120690        0.4166910944        2.1281333690
 H         -0.7928791768       -1.3535991634       -1.1814668208
 H         -1.7026539649       -3.6185137344       -1.4670257438
 H         -3.8211274027       -4.2517192331       -0.3704827890
 H         -5.0438807590       -2.6224120676        0.9885835726
 H         -7.2160132366       -3.1719173263        0.3677191183
 H         -8.3623766204       -4.8280081342       -1.0197683283
