  60
 
 C         -2.2915390861       -3.3124467843        1.7549282086
 C         -0.9476577871       -3.1013942254        1.5738938082
 C         -0.4569037057       -1.9278135605        0.9323797531
 C          0.9321514313       -1.6941325180        0.7396784098
 C          1.9067500332       -2.7390756199        0.8200253295
 C          3.2113000275       -2.5113831674        0.5503908452
 C          3.7105718836       -1.2113988452        0.1887333814
 C          5.0050118757       -0.9961261534       -0.2999326578
 C          5.9155409215       -2.0688862335       -0.5446583496
 C          7.1355370094       -1.8618630885       -1.1167283021
 C          7.5274199750       -0.5685862317       -1.4884499175
 C          6.6862289442        0.4986776395       -1.2373311888
 C          5.4446847640        0.3371702265       -0.6296624001
 C          4.5966652586        1.4645606157       -0.2966095042
 C          5.0617235259        2.7836528525       -0.3796091440
 C          4.2635661429        3.8600104921       -0.0419766192
 C          2.9755169424        3.6427028477        0.4118979076
 C          2.4994168740        2.3469030116        0.5191162759
 C          3.2773692213        1.2460041853        0.1597395833
 C          2.7721751793       -0.1166123552        0.2868330625
 C          1.4448995019       -0.3850998440        0.4904961958
 C         -1.4314049108       -1.0051936957        0.4761147474
 C         -2.7772102079       -1.2302973297        0.6569687528
 N         -3.7104653968       -0.2857152217        0.1980354753
 C         -4.8054078011       -0.5528134051       -0.5955532221
 C         -5.2211422689       -1.7563577375       -1.1503649130
 C         -6.3567266581       -1.7448589105       -1.9385971222
 C         -7.0601573662       -0.5672616188       -2.1824556925
 C         -6.6377083747        0.6382789285       -1.6518866203
 C         -5.5016748592        0.6518613891       -0.8556884280
 C         -4.7794978785        1.6933881296       -0.1750886375
 C         -4.9708362213        3.0613742940       -0.0430341371
 C         -4.0734407988        3.7849059001        0.7211104496
 C         -3.0066401342        3.1576781737        1.3612470018
 C         -2.7959902622        1.7965197846        1.2448591897
 C         -3.6787882778        1.0683062384        0.4579421610
 C         -3.2310254327       -2.3877911688        1.3086407475
 H         -2.6303623662       -4.2044986560        2.2620279123
 H         -0.2495953134       -3.8242127397        1.9642700097
 H          1.5899222207       -3.7421073832        1.0599821736
 H          3.9019029154       -3.3373969423        0.6085769877
 H          5.6257720873       -3.0755061662       -0.2908819404
 H          7.8001299782       -2.6945979529       -1.2979478977
 H          8.4819770368       -0.4074321044       -1.9663059786
 H          7.0144538796        1.4809029976       -1.5396159917
 H          6.0726712334        2.9808284479       -0.6982570617
 H          4.6536528208        4.8644618958       -0.1211568503
 H          2.3450153535        4.4734215573        0.6932745340
 H          1.5050118681        2.2016903377        0.9107760581
 H          0.7443714190        0.4324902189        0.5103568001
 H         -1.1277643131       -0.1297952102       -0.0760331893
 H         -4.6698483723       -2.6688616767       -0.9813197960
 H         -6.7032974821       -2.6681425257       -2.3790792401
 H         -7.9430191444       -0.5987204968       -2.8037464298
 H         -7.1764243246        1.5516769317       -1.8545980854
 H         -5.8063520448        3.5472086814       -0.5241160004
 H         -4.2030502278        4.8512416281        0.8332475266
 H         -2.3322823027        3.7471470920        1.9651022453
 H         -1.9795803434        1.3130702245        1.7596810395
 H         -4.2850381390       -2.5342518673        1.4828639170
