  58
 
 C          7.8223717762        1.6214056406        0.4769344747
 C          6.8047972277        2.5087013056        0.7955655290
 C          5.4868178448        2.1330157822        0.6581449274
 C          5.1422921204        0.8534233848        0.1965312206
 C          3.7404189083        0.5131571068        0.0690846464
 C          3.2617935849       -0.6887997998       -0.4376624891
 C          1.9035185951       -0.9976380230       -0.4185790169
 C          1.4638306843       -2.3420824879       -0.7721054934
 C          2.0207088602       -3.0008332325       -1.8737439463
 C          1.6103707243       -4.2725534917       -2.2182608605
 C          0.6438963385       -4.9256625215       -1.4690025540
 C          0.0985359977       -4.2943379549       -0.3618996565
 C          0.5042835510       -3.0218074884       -0.0146057045
 C          0.9799148762        0.0053327390        0.0249040825
 C         -0.3976835847       -0.0973760245       -0.0721472495
 C         -1.2446448239        0.9324709441        0.3796103483
 N         -2.6402024444        0.7662008013        0.2828708635
 C         -3.2535078788       -0.3134592240        0.9062172497
 C         -2.5535672008       -1.1811455629        1.7428898358
 C         -3.1867097522       -2.2615962200        2.3292177891
 C         -4.5348456314       -2.4871686525        2.1115791982
 C         -5.2595743655       -1.6066011539        1.3256865398
 C         -4.6317012071       -0.5234742797        0.7341222689
 O         -5.4111233646        0.3283838093        0.0032030806
 C         -4.8021558555        1.4061785619       -0.5771011063
 C         -5.6064060243        2.2633486855       -1.3093437860
 C         -5.0516268434        3.3503042910       -1.9633458576
 C         -3.6850663080        3.5616155585       -1.9010377286
 C         -2.8758753179        2.7130540990       -1.1679273141
 C         -3.4200224392        1.6365965032       -0.4700289621
 C         -0.6977026973        2.0959674222        0.9037969583
 C          0.6726950620        2.2545785509        0.9496037399
 C          1.5438535413        1.2431719979        0.4932839731
 N          2.8449422569        1.4485355951        0.4662040522
 C          6.1814452345       -0.0323654881       -0.1131980352
 C          7.4993958025        0.3513531478        0.0230530082
 H          8.8563031127        1.9147710185        0.5827082861
 H          7.0467415688        3.5004155677        1.1508969717
 H          4.6883331677        2.8198958756        0.8957901635
 H          3.9612663652       -1.4339632239       -0.7811379274
 H          2.7574541814       -2.4918567578       -2.4783699386
 H          2.0428646714       -4.7589165984       -3.0811021144
 H          0.3237888192       -5.9204194500       -1.7412261506
 H         -0.6431531075       -4.8015562852        0.2389932136
 H          0.1037899425       -2.5586177571        0.8750647328
 H         -0.8374815182       -0.9503377235       -0.5677339278
 H         -1.5104952721       -0.9942875962        1.9398094229
 H         -2.6209651463       -2.9239920075        2.9657442881
 H         -5.0289821112       -3.3317289962        2.5647869866
 H         -6.3170795020       -1.7367445972        1.1612228268
 H         -6.6628309605        2.0538974449       -1.3589521722
 H         -5.6839968266        4.0159722652       -2.5287804775
 H         -3.2389452746        4.3899241690       -2.4289141703
 H         -1.8104994591        2.8752615977       -1.1420661645
 H         -1.3483158825        2.8697299200        1.2841222927
 H          1.1070774338        3.1439804518        1.3760494575
 H          5.9621924067       -1.0322653818       -0.4561175072
 H          8.2867835775       -0.3472901084       -0.2226226726
