  75
 
 C         -9.6526649762       -1.2063828968       -0.1586787402
 C         -9.3935748496        0.1029858715       -0.5346138017
 C         -8.0920062603        0.5703034331       -0.4870981582
 C         -7.0792813126       -0.2912142366       -0.0587960200
 C         -5.6706613479        0.1296069213        0.0186360595
 C         -5.3127139849        1.4610140137        0.2041706352
 C         -3.9736531425        1.8442306050        0.2667690926
 C         -3.6475090725        3.2661059193        0.4658938622
 C         -2.4095783292        3.8074995143        0.1099257105
 C         -2.1745284728        5.1519615487        0.3372286249
 C         -3.1752566808        5.9237592381        0.9079303236
 C         -4.3771740581        5.3014114344        1.2105915919
 N         -4.6101587443        4.0208344557        0.9979648682
 C         -2.9855874029        0.8724876419        0.1560799694
 C         -3.3305246172       -0.4654337863       -0.0166863729
 C         -2.2803436648       -1.4843739412       -0.1145801340
 N         -1.0073252940       -1.0503939331       -0.0258016996
 C         -0.0310477315       -1.9267158228       -0.0839459693
 C          1.3307974419       -1.3758190730       -0.0800693069
 C          2.3060297706       -1.8367674325       -0.9630538296
 C          3.5706402383       -1.2820854773       -0.9582276552
 C          3.8844429416       -0.2590494689       -0.0674406114
 N          5.1812165596        0.3005221651       -0.0592761923
 C          6.2853645456       -0.4765430122        0.2980178367
 C          6.1594946541       -1.7932079709        0.7242603318
 C          7.2760323906       -2.5368693398        1.0760310910
 C          8.5354731221       -1.9751343595        1.0189018293
 C          8.6761042514       -0.6524164173        0.6231560685
 C          7.5656869663        0.0927648899        0.2726357796
 O          7.7826715104        1.4047622706       -0.0809502251
 C          6.6826221713        2.1581615377       -0.4220524990
 C          6.9137484921        3.4725088465       -0.7829593249
 C          5.8594465652        4.2890214094       -1.1669787860
 C          4.5793103277        3.7742189664       -1.2011663915
 C          4.3425355862        2.4563670108       -0.8394232907
 C          5.3830981371        1.6333315666       -0.4259288263
 C          2.9091411292        0.2145210781        0.8068547300
 C          1.6427293512       -0.3330494799        0.7910126454
 C         -0.2977047851       -3.3244107685       -0.1532891701
 C          0.6608518556       -4.3498459299       -0.0533985395
 C          0.2781030082       -5.6593969763       -0.1660508765
 C         -1.0687949423       -5.9970599614       -0.3771916431
 C         -2.0304297901       -5.0271800696       -0.4389702098
 C         -1.6702653558       -3.6695607638       -0.3059878802
 N         -2.6369633272       -2.7327957330       -0.3044514559
 C         -4.6697923183       -0.8323033654       -0.0844406357
 N         -7.3352347800       -1.5532149653        0.2864967384
 C         -8.5788323278       -1.9896390888        0.2380618514
 H        -10.6532141454       -1.6092302742       -0.1779770791
 H        -10.1947825708        0.7496667366       -0.8631606056
 H         -7.8608513851        1.5782726877       -0.7928220924
 H         -6.0600287035        2.2287710513        0.3274933487
 H         -1.6534503892        3.1923105025       -0.3509949403
 H         -1.2245647651        5.5926862436        0.0700412370
 H         -3.0320042167        6.9744386086        1.1057200940
 H         -5.1998281160        5.8539562123        1.6481064890
 H         -1.9389067857        1.1215171642        0.2232003663
 H          2.0621931397       -2.6047663044       -1.6819947805
 H          4.3220136590       -1.6332916727       -1.6499676796
 H          5.1794894231       -2.2389987337        0.7880839615
 H          7.1484049756       -3.5589625206        1.3982309091
 H          9.4081097716       -2.5493480286        1.2877551083
 H          9.6434705182       -0.1764499475        0.5844439052
 H          7.9289637297        3.8368247617       -0.7616388947
 H          6.0495820032        5.3138540488       -1.4446460462
 H          3.7510936738        4.3915302468       -1.5138516859
 H          3.3395969184        2.0625049487       -0.8861413381
 H          3.1524371422        1.0106345911        1.4947359299
 H          0.8813206240        0.0273870237        1.4656172995
 H          1.6926977601       -4.0936082096        0.1340579860
 H          1.0139604939       -6.4457572310       -0.0875048259
 H         -1.3429034289       -7.0375808423       -0.4710008059
 H         -3.0754284890       -5.2626362370       -0.5663834782
 H         -4.9340160555       -1.8690832526       -0.2136349404
 H         -8.7172842292       -3.0221566413        0.5351231634
