  87
 
 C          9.5510077971        0.1596197620        1.2391640687
 C          8.6861001982       -0.0513538513       -0.0169992433
 C          9.5785745970       -0.1595723703       -1.2668901421
 C          7.9105059575       -1.3459203874        0.1358048847
 C          8.6002339616       -2.5408949998        0.2876517149
 C          7.9496569069       -3.7548847937        0.4069400513
 C          6.5678626631       -3.7879026134        0.3600480283
 C          5.8574974340       -2.6155551810        0.2115557607
 C          6.5123671766       -1.3841387428        0.1139513324
 N          5.7707331284       -0.2212793299       -0.0238038612
 C          4.3532075747       -0.3028614743       -0.0258196910
 C          3.6481700059       -0.1902813515       -1.2186284422
 C          2.2690592877       -0.2576103120       -1.2168799786
 C          1.5670131366       -0.4525608299       -0.0288934049
 C          0.0999854243       -0.5265850660       -0.0283915651
 C         -0.5661597317       -1.4792975055        0.7414910920
 C         -1.9429790004       -1.5440600206        0.7456832050
 C         -2.6976368915       -0.6444486600       -0.0077096884
 C         -4.1464984310       -0.7548668581        0.0360422785
 N         -4.7802845351       -1.8964571841        0.0792459490
 C         -6.1056862674       -1.5942971611        0.0825808246
 C         -7.2052644986       -2.4969312819        0.0758460928
 C         -7.0059482224       -3.8812197969        0.0551864352
 C         -8.0799107763       -4.7342805854        0.0075073761
 C         -9.3702599601       -4.2089485179       -0.0249695859
 C         -9.5775382739       -2.8496683984        0.0020708629
 C         -8.5064030426       -1.9448810167        0.0620207882
 C         -8.6917883939       -0.5058623757        0.1329556639
 C         -9.9689456296        0.0668171199        0.2160155126
 C        -10.1545663659        1.4235538309        0.3362578546
 C         -9.0565116630        2.2752035747        0.4005865440
 C         -7.7886588622        1.7558541226        0.3129819906
 C         -7.5778989259        0.3785122936        0.1548391797
 C         -6.2871989546       -0.2134254119        0.0562458480
 N         -5.0157286881        0.3198778447        0.0162870117
 C         -4.6226291462        1.6638751215       -0.0587075022
 C         -5.0114130664        2.4478931451       -1.1450680089
 C         -4.5889109830        3.7571562590       -1.2354035175
 C         -3.7670185565        4.2920475829       -0.2409202034
 C         -3.3302402957        5.6335380572       -0.3355538269
 N         -2.9774538518        6.7212030534       -0.4142032994
 C         -3.3759042396        3.5062356018        0.8440735995
 C         -3.8030788483        2.1976924435        0.9333080993
 C         -2.0351385254        0.2938754497       -0.7971838308
 C         -0.6562836632        0.3481659266       -0.8054974258
 C          2.2836146001       -0.5747026925        1.1601724528
 C          3.6620418937       -0.4937717163        1.1651102127
 C          6.3729796627        1.0199051819       -0.1600687731
 C          5.5803124525        2.1670746636       -0.2623645304
 C          6.1505058868        3.4138215832       -0.4094845535
 C          7.5269720207        3.5412852877       -0.4498823532
 C          8.3133344019        2.4110526124       -0.3257359521
 C          7.7661718234        1.1442097507       -0.1755685087
 H         10.2342909927       -0.6725310330        1.3845406021
 H         10.1370125339        1.0709886421        1.1587480216
 H          8.9134720951        0.2381469030        2.1179356811
 H          8.9607678555       -0.3113660317       -2.1501310725
 H         10.1613246100        0.7465294849       -1.4077410871
 H         10.2662589811       -0.9964307557       -1.1820555621
 H          9.6795129283       -2.5308434845        0.3125213530
 H          8.5174120052       -4.6650018885        0.5266449102
 H          6.0389388275       -4.7263482618        0.4361621392
 H          4.7798571503       -2.6513126455        0.1647452571
 H          4.1902084121       -0.0465831256       -2.1417026151
 H          1.7290323893       -0.1841850708       -2.1492009067
 H          0.0054737259       -2.1867083531        1.3239297875
 H         -2.4603611290       -2.2884965834        1.3305316743
 H         -5.9903752978       -4.2450791543        0.0691907527
 H         -7.9317012134       -5.8037872526       -0.0110381913
 H        -10.2185048199       -4.8764913010       -0.0719038449
 H        -10.5937240037       -2.4900260272       -0.0285618861
 H        -10.8415470311       -0.5656443899        0.1979284257
 H        -11.1541355302        1.8275598594        0.3977458207
 H         -9.1987445562        3.3384497322        0.5246955033
 H         -6.9412931497        2.4189939385        0.3888911116
 H         -5.6439116590        2.0203833348       -1.9091120772
 H         -4.8845594544        4.3708582601       -2.0730705680
 H         -2.7424156877        3.9281879750        1.6095860812
 H         -3.5063309738        1.5793549357        1.7669383496
 H         -2.5939282186        0.9694094545       -1.4279682859
 H         -0.1574680703        1.0904120250       -1.4113596952
 H          1.7525298974       -0.7085426634        2.0910285439
 H          4.2144445828       -0.5795653637        2.0892554405
 H          4.5055471725        2.0780577697       -0.2207743630
 H          5.5165419326        4.2843731526       -0.4897005680
 H          7.9858125640        4.5110089873       -0.5683853676
 H          9.3865914372        2.5262781486       -0.3453091904
