72

C     -2.275459    5.068500    0.110993
C     -1.551484    3.760120    0.214554
C     -0.168443    3.717626    0.334796
C      0.492300    2.488189    0.398954
C     -0.199041    1.256690    0.335084
C     -1.595996    1.294062    0.195461
C     -2.250217    2.552899    0.132925
C     -2.416964    0.000611    0.105370
C     -3.531213   -0.004657    1.186465
C     -3.384558   -0.009331    2.568513
C     -4.538759   -0.013582    3.352253
C     -5.810783   -0.013129    2.756191
C     -5.953117   -0.008423    1.364450
C     -4.809867   -0.004184    0.581997
C     -4.658563    0.001098   -0.858466
C     -5.614236    0.003444   -1.861418
C     -5.185818    0.008778   -3.193208
C     -3.817711    0.011731   -3.511991
C     -2.851581    0.009394   -2.505507
C     -3.282258    0.004072   -1.184055
C     -1.592637   -1.291336    0.185979
C     -2.243560   -2.551376    0.114057
C     -1.540224   -3.757277    0.172445
C     -2.267725   -5.066967    0.125939
C     -0.161228   -3.712265    0.331825
C      0.496361   -2.481609    0.404459
C     -0.196351   -1.251393    0.331468
N      0.505119    0.003306    0.404553
C      1.937339    0.004716    0.550332
C      2.499609    0.016386    1.858391
C      3.888975    0.018347    2.064011
C      4.711722    0.008651    0.953888
C      4.153723   -0.002617   -0.321399
C      5.154895   -0.010848   -1.287961
C      4.813267   -0.022486   -2.626831
C      3.450242   -0.025493   -2.963296
C      2.448623   -0.016937   -1.967317
C      2.788004   -0.005175   -0.593148
C      6.433527   -0.004622   -0.597288
N      7.653473   -0.009441   -1.176107
C      8.607628   -0.000619   -0.186184
N      9.928162   -0.001918   -0.363490
O     10.462247    0.009445    0.925752
N      9.477524    0.017892    1.914607
C      8.323991    0.011849    1.247867
N      7.064780    0.016438    1.800208
C      6.157257    0.007534    0.800459
H     -2.386017    5.352972   -0.939908
H     -1.730773    5.860551    0.635606
H     -3.268769    5.001324    0.567163
H      0.411581    4.636261    0.380949
H      1.574200    2.518556    0.497175
H     -3.333335    2.591171    0.017965
H     -2.400282   -0.009586    3.026540
H     -4.453390   -0.017223    4.436466
H     -6.696770   -0.016441    3.387115
H     -6.941914   -0.008109    0.918427
H     -6.674131    0.001218   -1.630535
H     -5.921483    0.010650   -3.994371
H     -3.509226    0.015847   -4.554868
H     -1.793781    0.011647   -2.748922
H     -3.327556   -2.591695    0.008444
H     -3.146655   -5.001399   -0.524028
H     -2.590616   -5.351752    1.132010
H     -1.625863   -5.858108   -0.275755
H      0.418330   -4.629835    0.399839
H      1.576372   -2.509976    0.522115
H      1.832592    0.023872    2.719148
H      4.301707    0.027274    3.068626
H      5.576499   -0.029104   -3.399607
H      3.156762   -0.034618   -4.011537
H      1.401548   -0.019590   -2.264637
