72
 xtb: 6.7.1 (edcfbbe)
C           -3.55280487216401        4.97907934711528       -0.75958230696283
C           -2.72376488298252        3.77277807502473       -0.44439314012241
C           -1.34247118313557        3.85754600467956       -0.33063967732855
C           -0.58573871074800        2.75123043516649       -0.00493299417381
C           -1.18554459272827        1.51320033999308        0.23287967344618
C           -2.56840064203929        1.40544942977873        0.06341020530308
C           -3.31053547945588        2.53072054226810       -0.26149940966192
C           -3.27410857364786        0.07343937033186        0.11857353788820
C           -4.60748926514469        0.16564723621220        0.82955535933807
C           -4.85043571915234        0.50930421171739        2.14095975801388
C           -6.16468704541131        0.52483621030979        2.58913950379149
C           -7.20909379318224        0.19959083596726        1.73693374348609
C           -6.96891902244061       -0.14815110772310        0.41694290636651
C           -5.66024891855343       -0.16391920740822       -0.03606412301256
C           -5.10251159873413       -0.47445287180034       -1.34378593049310
C           -5.71217257479062       -0.84823084002416       -2.52971022732616
C           -4.91719895345285       -1.07314102919932       -3.64239109441312
C           -3.54062424054537       -0.92286028307680       -3.57576232775493
C           -2.92415005287294       -0.54856003258160       -2.38921750440737
C           -3.70977991475516       -0.33192946756237       -1.27947404109051
C           -2.41104048361746       -1.00434305954396        0.72401021759323
C           -2.98755007427345       -2.21627100620729        1.07121530770225
C           -2.24949767755082       -3.24746429201989        1.63170836814133
C           -2.90725797079811       -4.53561599157206        2.02089314538653
C           -0.89927615738338       -3.02594160177690        1.87052242361618
C           -0.30693485095779       -1.82728929454533        1.53303694245956
C           -1.04426144585084       -0.80959232936648        0.92347388615082
N           -0.42758786872747        0.39222428390477        0.57578152962633
C            0.97480855214170        0.45228571824417        0.60746037932136
C            1.63142543201489        1.29807467222983        1.48899491616928
C            3.02547234319859        1.40376663440324        1.55762437117679
C            3.78166650341267        0.63243463407977        0.70486086273693
C            3.11886282141749       -0.23670140820206       -0.19493122024544
C            4.02223396192018       -0.95942575943743       -1.00845281498569
C            3.52835141082217       -1.83745971992216       -1.94208786966362
C            2.13379167809999       -1.97403971943814       -2.04759885374868
C            1.25423470394253       -1.27563129751064       -1.25299908792671
C            1.73141438911549       -0.36929290387874       -0.28052608733224
C            5.35210985581156       -0.53938150380166       -0.60573495483599
N            6.49451886302835       -0.94021483170977       -1.07638651036557
C            7.54001745572883       -0.33667622155603       -0.46780784124720
N            8.82829115182801       -0.49140948979009       -0.67761342813543
O            9.43734391845582        0.33081880571977        0.17810936577613
N            8.59747304473551        1.02529429159251        0.94884362211122
C            7.38893373985975        0.64978878772412        0.59063471552947
N            6.19132893252565        1.05417559683949        1.06530681723385
C            5.19771273304874        0.46051060856082        0.46863271475364
H           -3.83378718772906        5.48949054789428        0.16390333598685
H           -4.46495845846438        4.69714937498244       -1.27802050927544
H           -2.99592493520149        5.68208471882843       -1.37426626979567
H           -0.84576921742673        4.80060363636087       -0.50554901896518
H            0.48711097842497        2.85143497537784        0.04459628243522
H           -4.37898714971656        2.42577200345403       -0.38465678649757
H           -4.03700995930835        0.76269695442889        2.80564478211735
H           -6.37689600349075        0.79425374116027        3.61419748261432
H           -8.22412098371016        0.21832064896783        2.10809278932888
H           -7.78583630767645       -0.40093483590536       -0.24222603940199
H           -6.78440063037498       -0.96174017741674       -2.58735608504568
H           -5.37519201271525       -1.36675042118994       -4.57455979933527
H           -2.94061633138004       -1.09772532584206       -4.45571511001723
H           -1.85175826888560       -0.42164300525365       -2.34226457787940
H           -4.04521585481103       -2.35534747684570        0.90162671888192
H           -3.60292663644127       -4.85610881016979        1.21778425812167
H           -3.48958853416814       -4.41027791236251        2.93678842633685
H           -2.16138637044651       -5.32294226972795        2.17108580135323
H           -0.30084260374726       -3.79572074174884        2.33664465918741
H            0.74021077977993       -1.67678323995124        1.74870412205262
H            1.03254420087475        1.88744113769661        2.16746643888925
H            3.48891968093027        2.06544506408784        2.27122951443579
H            4.18856785971273       -2.40488473101172       -2.58000691516250
H            1.74023074398950       -2.65784062452178       -2.78592560361759
H            0.19164424705180       -1.42541118357635       -1.37125704957381
