  111
 
 C         -4.9190540448        5.1004526189       -2.1583718953
 C         -3.6717748339        4.7698386481       -1.3261558414
 C         -2.4433222260        5.2957232323       -2.0736838220
 C         -3.7438187956        5.4901796160        0.0282755650
 C         -3.6225496290        3.2684868327       -1.0892499345
 C         -2.5875003274        2.4666979111       -1.5772646822
 C         -2.5296532872        1.1035491244       -1.3511828968
 C         -3.5352407066        0.5189873177       -0.5965959155
 C         -4.6172074534        1.3007716527       -0.1300215850
 C         -4.6532894707        2.6611420828       -0.3750608378
 C         -5.5057956079        0.3947217728        0.5519701994
 C         -6.7035303945        0.5730164944        1.2243908020
 C         -7.3243564402       -0.5151882654        1.8256230079
 C         -8.6405344199       -0.3936460896        2.5764498870
 C         -9.6760733976       -1.3254135130        1.9304531177
 C         -8.4201263167       -0.7965228332        4.0418019477
 C         -9.2034045117        1.0301689849        2.5533311535
 C         -6.7006056055       -1.7680950064        1.7500326576
 C         -5.5065381351       -1.9732517184        1.0895751502
 C         -4.9135312077       -0.8852915300        0.4633176233
 N         -3.7268859154       -0.7985471326       -0.2322067807
 C         -2.8488419099       -1.8483671990       -0.5131093327
 C         -3.3740587681       -3.0705622889       -1.0265098678
 C         -2.4993818468       -4.1018041387       -1.3544858953
 C         -1.1538305809       -3.9258253035       -1.1911012576
 C         -0.5989194353       -2.6943313056       -0.7029623605
 C         -1.4978172004       -1.6694437919       -0.3434460590
 C          0.8026977169       -2.6560304280       -0.6868615493
 C          1.6356039739       -1.5849031945       -0.3045694904
 C          2.9980698913       -1.6883539672       -0.4441570793
 N          3.8084213864       -0.5926528707       -0.1371036657
 C          4.9809202033       -0.6139789087        0.5873778800
 C          5.6312884649       -1.6710364377        1.2094232400
 C          6.7979963813       -1.4000317387        1.8948482560
 C          7.3374438957       -0.1108494697        2.0013813646
 C          8.6350928697        0.0818190224        2.7694453911
 C          8.4345638999       -0.3772222918        4.2209664027
 C          9.0961855835        1.5417933367        2.7913307241
 C          9.7377064296       -0.7562077456        2.1060475520
 C          6.6561859371        0.9451286049        1.4082132705
 C          5.4853357756        0.7005853705        0.7094563497
 C          4.5563020718        1.5576972452        0.0187774539
 C          4.5120957628        2.9256302066       -0.1994948493
 C          3.4695394931        3.4719874851       -0.9377193876
 C          3.3420068816        4.9646643514       -1.1970253874
 C          4.4367162145        5.7788789919       -0.5023591641
 C          1.9826499986        5.4515323556       -0.6736051615
 C          3.4386380238        5.2210712628       -2.7078719979
 C          2.5066247337        2.6080343235       -1.4764975832
 C          2.5255785317        1.2437395843       -1.2723992046
 C          3.5432916953        0.7149716146       -0.4899702187
 C          3.6009342768       -2.8773598604       -0.9498611565
 C          2.7919556352       -3.9546973179       -1.2977890813
 C          1.4354756192       -3.8541675166       -1.1630852646
 S          0.1771668012       -5.0589749401       -1.5443175133
 O          0.2020272217       -5.4180005923       -2.9423869969
 O          0.1973301261       -6.1553252027       -0.6056161684
 H         -5.8287040226        4.8054132948       -1.6428168740
 H         -4.8836933682        4.5784777264       -3.1123351954
 H         -4.9677099611        6.1699485041       -2.3512304302
 H         -1.5313028472        5.0890323773       -1.5180439246
 H         -2.3679548638        4.8574470410       -3.0660548945
 H         -2.5266175604        6.3742091715       -2.1911072326
 H         -2.8751945923        5.2395121996        0.6336923038
 H         -3.7600627397        6.5673897175       -0.1225137479
 H         -4.6363339019        5.2125929574        0.5814675429
 H         -1.7955471258        2.9073281450       -2.1591842094
 H         -1.7270484137        0.5148443926       -1.7673629553
 H         -5.4882020287        3.2377620712       -0.0085428091
 H         -7.1293166710        1.5611943299        1.2724563739
 H         -9.8184924294       -1.0615786942        0.8845517331
 H         -9.3635536700       -2.3644347858        1.9802191677
 H        -10.6312977022       -1.2334837925        2.4427437758
 H         -7.6714682915       -0.1535040366        4.4999745434
 H         -9.3486799080       -0.6975320516        4.5997637874
 H         -8.0816953459       -1.8253232938        4.1249265733
 H         -8.5246372704        1.7285144596        3.0374959764
 H         -9.3913660116        1.3603592303        1.5342364789
 H        -10.1478516803        1.0540360941        3.0929682208
 H         -7.1599889967       -2.6166346624        2.2325425705
 H         -5.0443388326       -2.9479417451        1.0761975782
 H         -4.4316653659       -3.1593834473       -1.2104163679
 H         -2.8759724219       -5.0358617268       -1.7423229577
 H         -1.1240182079       -0.7488885768        0.0774747024
 H          1.2023890244       -0.6883160053        0.1111277038
 H          5.2343439084       -2.6734627955        1.1724497482
 H          7.3040200071       -2.2252957267        2.3710516217
 H          9.3486962749       -0.2236553057        4.7902928814
 H          8.1751176506       -1.4306676350        4.2733491375
 H          7.6358230452        0.1942889344        4.6891800638
 H          9.2719225385        1.9122867134        1.7840117562
 H          8.3641009864        2.1770053320        3.2846635434
 H         10.0305301806        1.6173071287        3.3436726046
 H          9.8703990344       -0.4504399708        1.0703111893
 H         10.6801143130       -0.6156073226        2.6308760422
 H          9.4960962103       -1.8150957636        2.1202148734
 H          7.0149265619        1.9581232380        1.4804909304
 H          5.2954285338        3.5415319893        0.2093013175
 H          4.4081254541        5.6330020581        0.5750650584
 H          4.2827002464        6.8372321360       -0.7023760810
 H          5.4222269028        5.5091535706       -0.8744859792
 H          1.1601323459        4.9603917823       -1.1857403142
 H          1.8935397617        5.2457757901        0.3911337885
 H          1.8854246980        6.5239929508       -0.8276965680
 H          3.3659702208        6.2872502317       -2.9112873439
 H          2.6426435939        4.7163457920       -3.2480953453
 H          4.3912554735        4.8605133750       -3.0900815048
 H          1.7117941575        3.0143654551       -2.0825507089
 H          1.7779720499        0.6100693727       -1.7234759058
 H          4.6653585175       -2.9067383549       -1.1120899129
 H          3.2280030504       -4.8654817760       -1.6786581450
