  60
 
 O          6.5030981276        0.0458766348       -1.4138078070
 C          5.6713233401       -0.8262744665       -1.3697383799
 O          5.9974311206       -2.1080171510       -1.1391889324
 C          4.2200079690       -0.6133255358       -1.5567812671
 C          3.3076382461       -1.6622392827       -1.4760078095
 C          1.9606975427       -1.4168248829       -1.6540321412
 C          1.5017264267       -0.1300388368       -1.9166376140
 C          0.0255300630        0.1308605094       -2.0552361063
 C         -0.6197500435        0.1822760242       -0.6734144716
 C         -1.2124573585       -1.0796987374       -0.0319297964
 C         -1.2429749777       -2.3345261853       -0.7853197037
 C         -1.0541889841       -3.5364950260       -0.1900372091
 C         -0.8402767018       -3.6508253083        1.2015144767
 C         -0.6469095133       -4.9727509155        1.7824712743
 O         -0.6266247024       -6.0092561812        1.1534661984
 O         -0.4813700229       -4.9577425484        3.1237224951
 C         -0.8460021023       -2.4716511186        1.9779340168
 C         -1.0338676979       -1.2551792089        1.4111599355
 C          0.1268626698        1.1540364444        0.1798526227
 C          1.1913383072        0.7375145600        0.9746735159
 C          1.9396083949        1.6572984282        1.6816959375
 C          1.6329677612        3.0128624177        1.6003826328
 C          2.4132435934        4.0353934673        2.3327891053
 O          2.1959180286        5.2205270754        2.2885478727
 O          3.4079950619        3.5190897068        3.0692727124
 C          0.5690172274        3.4335431462        0.8051593472
 C         -0.1736277255        2.5115175020        0.0975531502
 C         -2.1479987229        0.1147770291       -0.5302112466
 C         -2.7760212030        0.9528190879        0.4928674546
 C         -4.0145728625        1.4811431191        0.3398299601
 C         -4.7749317242        1.2427940973       -0.8254201936
 C         -6.1171497516        1.7796890689       -1.0095399069
 O         -6.8011568613        1.6112436654       -1.9963082902
 O         -6.5590668476        2.5076425064        0.0397071785
 C         -4.2039451958        0.4530439078       -1.8478820850
 C         -2.9700859471       -0.0912901362       -1.7223836318
 C          2.4177873813        0.9129806719       -1.9993300611
 C          3.7653849884        0.6764966266       -1.8219832945
 H          6.9578708477       -2.1855293639       -1.0290186462
 H          3.6594941870       -2.6612316796       -1.2727627033
 H          1.2548011062       -2.2317036399       -1.5822601956
 H         -0.1352978644        1.0977808735       -2.5393821930
 H         -0.4195508543       -0.6413804187       -2.6785049651
 H         -1.4266885674       -2.3065361681       -1.8460756290
 H         -1.0731989928       -4.4476924371       -0.7693243280
 H         -0.3635413388       -5.8670142020        3.4368340116
 H         -0.7044474721       -2.5557169092        3.0440800102
 H         -1.0269216139       -0.3787575418        2.0373444637
 H          1.4343150562       -0.3131353391        1.0313399764
 H          2.7661512613        1.3331502480        2.2934180009
 H          3.8881420134        4.2326453636        3.5176359125
 H          0.3459746254        4.4882362951        0.7531162957
 H         -0.9965306629        2.8371913538       -0.5222685307
 H         -2.2188544163        1.1724227988        1.3884880787
 H         -4.4401870277        2.0962764823        1.1171054543
 H         -7.4535068224        2.8268003646       -0.1522649601
 H         -4.7899503504        0.2899888438       -2.7398524682
 H         -2.5800247513       -0.6808696818       -2.5342584749
 H          2.0702452943        1.9159020571       -2.2001460852
 H          4.4857333541        1.4776885587       -1.8830306222
