  78
 
 N         -1.9636525910        6.6397210342       -1.1332122056
 C         -2.3318913008        5.5677730198       -0.9627786079
 C         -2.7844571661        4.2452742320       -0.7498263783
 C         -2.4090254720        3.2299115767       -1.6307002565
 C         -2.8477033880        1.9395803473       -1.4180678964
 C         -3.6633470368        1.6529259616       -0.3256072747
 N         -4.0647196400        0.3302222198       -0.0895759826
 C         -3.2011476755       -0.7260145576        0.1344411529
 C         -1.7519630779       -0.6180189958        0.1505391509
 C         -1.0043365216       -1.6783158218       -0.3627955201
 C          0.3728615233       -1.6269749332       -0.3696414610
 C          1.0489339608       -0.5179843217        0.1389826898
 C          2.5151250614       -0.4540452374        0.1210932594
 C          3.1723784574        0.7412818454       -0.1667712712
 C          4.5503253682        0.8058558088       -0.1900916133
 C          5.3090850957       -0.3275325446        0.0911811238
 N          6.7070334580       -0.2633344377        0.0787020425
 C          7.5507622445       -1.1292701493       -0.5894982131
 C          7.2441075083       -2.1967382223       -1.4210611348
 C          8.2929817539       -2.8898316203       -1.9944359643
 C          9.6181014720       -2.5306308357       -1.7585155365
 C          9.9286987260       -1.4542668478       -0.9518787192
 C          8.8916104806       -0.7419827054       -0.3643125414
 C          8.8455216346        0.4123171828        0.4889928238
 C          9.8223760897        1.2163676492        1.0612411259
 C          9.4274812729        2.2605795218        1.8732368874
 C          8.0789301301        2.4979579987        2.1295040614
 C          7.0888534928        1.7119355273        1.5716828641
 C          7.4786381759        0.6761837731        0.7348423689
 C          4.6616770260       -1.5247959996        0.3862722891
 C          3.2833369172       -1.5852483871        0.3925822402
 C          0.2983353339        0.5262869635        0.6766432763
 C         -1.0803780824        0.4781779549        0.6895128073
 N         -3.8415863062       -1.8437586281        0.3526497909
 C         -5.1651399188       -1.5424363166        0.2824842849
 C         -6.2694330140       -2.4139792794        0.4940121039
 C         -6.0771703889       -3.7594135863        0.8245425139
 C         -7.1553482877       -4.5741979132        1.0632586727
 C         -8.4429131465       -4.0479408682        0.9780042714
 C         -8.6432644321       -2.7281932404        0.6471692478
 C         -7.5676329768       -1.8656421709        0.3851748005
 C         -7.7456620773       -0.4779947580       -0.0058389791
 C         -9.0201966526        0.0698826350       -0.2092680386
 C         -9.1993189418        1.3664114220       -0.6294548160
 C         -8.0971301186        2.1748077318       -0.8880183577
 C         -6.8315896391        1.6800674360       -0.6918699487
 C         -6.6271845961        0.3718772639       -0.2299173899
 C         -5.3391686879       -0.1904799285       -0.0047848507
 C         -4.0383422347        2.6672130838        0.5556834474
 C         -3.6040321505        3.9585189799        0.3441085976
 H         -1.7782435523        3.4608174901       -2.4758368875
 H         -2.5621812901        1.1451092546       -2.0908587780
 H         -1.5279546761       -2.5348392789       -0.7578788710
 H          0.9353143366       -2.4450673658       -0.7945567958
 H          2.5956761968        1.6229615211       -0.4050070783
 H          5.0484444247        1.7298887485       -0.4429058562
 H          6.2202533990       -2.4716956644       -1.6254518856
 H          8.0802198627       -3.7266422722       -2.6433769355
 H         10.4096233980       -3.0994578389       -2.2232810660
 H         10.9548795864       -1.1651338349       -0.7820739179
 H         10.8679010194        1.0216258663        0.8756919075
 H         10.1709291235        2.8993802370        2.3263135814
 H          7.8007504770        3.3124773912        2.7820281767
 H          6.0475153675        1.8929043178        1.7918789742
 H          5.2466542803       -2.3995804104        0.6279624417
 H          2.7934908588       -2.5142440355        0.6438669058
 H          0.8028034024        1.3744977403        1.1156095483
 H         -1.6319638508        1.2852156692        1.1487391954
 H         -5.0634851029       -4.1226727250        0.8913241303
 H         -7.0126064761       -5.6131235751        1.3209882900
 H         -9.2944894196       -4.6834194846        1.1737694366
 H         -9.6575839300       -2.3655423507        0.5966884270
 H         -9.8960670884       -0.5365935456       -0.0455427233
 H        -10.1970831981        1.7529604404       -0.7750373108
 H         -8.2344600293        3.1841968724       -1.2463633854
 H         -5.9811368155        2.3039581642       -0.9178111430
 H         -4.6685222727        2.4306329267        1.4003580434
 H         -3.8880966927        4.7492798799        1.0221486383
