  70
 
 C          5.6689579376        2.1521567391        2.4579413531
 C          4.9356311369        2.3253394896        1.1336334226
 C          3.9754125854        1.1696962476        0.8691896379
 C          3.2248265464        1.3502550005       -0.4512577425
 O          2.2863734201        0.3224515473       -0.6847059277
 C          2.7228402100       -0.9293385010       -1.0068271182
 C          4.0120569054       -1.2509025454       -1.4141779150
 C          4.3333581553       -2.5541200113       -1.7570322534
 C          3.3796055305       -3.5523045410       -1.6991903922
 C          2.0931614223       -3.2397596674       -1.2939496559
 C          1.7516556251       -1.9429357968       -0.9425008058
 C          0.3806374222       -1.6241116029       -0.4890393099
 C         -0.6876373100       -1.6825794317       -1.3941903545
 C         -0.4943408528       -1.9905459267       -2.7666950516
 C         -1.5444442228       -2.0606173157       -3.6293119425
 C         -2.8586250598       -1.8281200302       -3.1747199637
 C         -3.0857240868       -1.5086637826       -1.8720156797
 C         -2.0164002371       -1.4121504356       -0.9422446614
 C         -2.2379922157       -1.0342208976        0.3879356287
 C         -3.6203564101       -0.7887043322        0.8736695774
 C         -4.3139751371       -1.9070873860        1.3357593364
 C         -5.5896262613       -1.8163535746        1.8530386523
 C         -6.2028258632       -0.5754617161        1.9245960264
 C         -5.5399731184        0.5415526929        1.4663753447
 C         -4.2504913759        0.4593686588        0.9309692766
 O         -3.7464294699        1.6616778370        0.5381996738
 C         -2.5947243589        1.7476449825       -0.2781582092
 C         -2.4524499778        3.2040419389       -0.7112131688
 C         -1.3946677149        3.3853186266       -1.7974100198
 C          0.0121570057        3.0348732926       -1.3264254663
 C         -1.1684687434       -0.9672989889        1.2914418128
 C         -1.3648624134       -0.5907236971        2.6460958485
 C         -0.3239411443       -0.5446416297        3.5210394180
 C          0.9747554970       -0.8923424355        3.0977666093
 C          1.2036508534       -1.2557548061        1.8064809405
 C          0.1541788219       -1.2821880264        0.8515843057
 H          6.2460265708        1.2300287174        2.4573150114
 H          4.9603440219        2.1116016442        3.2819531471
 H          6.3491731842        2.9827786816        2.6299520055
 H          5.6630659116        2.3858857674        0.3204613706
 H          4.3761023815        3.2632447270        1.1464206774
 H          3.2408420022        1.1033620752        1.6747506616
 H          4.5307427331        0.2290107799        0.8485348269
 H          3.9274267515        1.4420295336       -1.2895245469
 H          2.6232532787        2.2619174633       -0.4124270485
 H          4.7777503511       -0.4933734445       -1.4745629816
 H          5.3411954504       -2.7832352687       -2.0706349294
 H          3.6338034972       -4.5672221121       -1.9640793589
 H          1.3374715309       -4.0097341351       -1.2349795948
 H          0.5120071518       -2.1645451764       -3.1174578244
 H         -1.3802942872       -2.2946548520       -4.6711127514
 H         -3.6806113445       -1.8982663956       -3.8721639406
 H         -4.0899157106       -1.3196023637       -1.5193445652
 H         -3.8178282853       -2.8661722930        1.2842210225
 H         -6.0986000477       -2.7021046043        2.2013695304
 H         -7.1981120636       -0.4801356381        2.3321192401
 H         -5.9976380719        1.5178504013        1.5074086396
 H         -1.7067494228        1.4255527743        0.2759279929
 H         -2.7100941033        1.1119757167       -1.1648664061
 H         -3.4214158257        3.5398088529       -1.0862073556
 H         -2.2041502512        3.8126444870        0.1599009883
 H         -1.6521169967        2.7642559219       -2.6583308269
 H         -1.4119679647        4.4279511177       -2.1232387586
 H          0.2579891704        3.5938304855       -0.4255486308
 H          0.1037640482        1.9729027165       -1.1129902626
 H          0.7370021309        3.2880912604       -2.0973563167
 H         -2.3653638951       -0.3427962967        2.9700314229
 H         -0.4860660519       -0.2538702452        4.5487110002
 H          1.7856328856       -0.8735497595        3.8120289190
 H          2.1960281685       -1.5389115140        1.4890684161
