  45
 
 C          2.8897107364       -3.0442015395       -1.0030747935
 C          2.4377379789       -2.1624469095       -1.9698811619
 C          1.4924883129       -1.2035141202       -1.6522256553
 C          0.9672029138       -1.1184227209       -0.3671954715
 C         -0.0000049314       -0.0000013159       -0.0000001040
 C         -0.9673482117        0.3671991094       -1.1182948557
 C         -1.4926347515        1.6522359816       -1.2032978579
 C         -2.4379305812        1.9699384262       -2.1621688888
 C         -2.8899629102        1.0031691684       -3.0439336257
 C         -2.3978392375       -0.2869381047       -2.9472302350
 C         -1.4522611999       -0.6034966447       -1.9878358946
 C         -0.9672468742       -0.3671115364        1.1184073785
 C         -1.4926608609       -1.6520924880        1.2034539375
 C         -2.4379183929       -1.9696954089        2.1623938527
 C         -2.8897681663       -1.0028835062        3.0442057025
 C         -2.3975110286        0.2871703451        2.9474683241
 C         -1.4519835433        0.6036332321        1.9879930878
 C          0.9673370594        1.1183334160        0.3670976846
 C          1.4927706473        1.2033660474        1.6520724742
 C          2.4381485327        2.1622034811        1.9696318548
 C          2.8901024193        3.0439207503        1.0027824339
 C          2.3978340039        2.9471867002       -0.2872675842
 C          1.4521783157        1.9878228222       -0.6036819618
 C          1.4520550254       -1.9879619815        0.6035360891
 C          2.3975828392       -2.9474206041        0.2870252842
 H          3.6270947885       -3.7938838984       -1.2507035341
 H          2.8261537344       -2.2166919842       -2.9769126127
 H          1.1600801213       -0.5153361549       -2.4153526984
 H         -1.1601415059        2.4153480426       -0.5151449699
 H         -2.8264017406        2.9769543359       -2.2162980887
 H         -3.6274854045        1.2508012947       -3.7934784937
 H         -2.7551064679       -1.0549568068       -3.6183706664
 H         -1.0886264375       -1.6181289119       -1.9190622578
 H         -1.1603472250       -2.4152219920        0.5152328070
 H         -2.8264830480       -2.9766738699        2.2165617291
 H         -3.6272092800       -1.2504537653        3.7938517740
 H         -2.7545948289        1.0552093580        3.6186840645
 H         -1.0882412866        1.6182259793        1.9191973338
 H          1.1603992025        0.5151966476        2.4152233525
 H          2.8266738236        2.2164096772        2.9766236432
 H          3.6275609039        3.7935523848        1.2503439651
 H          2.7549557969        3.6183627436       -1.0553239888
 H          1.0884518041        1.9190004312       -1.6182786539
 H          1.0884414660       -1.9190995818        1.6181701583
 H          2.7547464884       -3.6186045290        1.0550551227
