  52
 
 C         -5.0616801090       -0.8435447399        1.8626277215
 C         -3.7079579868       -0.4616968376        1.2645120982
 C         -2.7183692011       -0.2330527229        2.4259513085
 C         -3.7787286496        0.7976679098        0.4212818609
 C         -4.8436353394        1.6819122836        0.4153509598
 C         -4.8293214947        2.8102516993       -0.3899363638
 C         -3.7541172275        3.0544803270       -1.2277359993
 C         -2.6813364675        2.1854862226       -1.2417306138
 C         -2.6744634329        1.0766230922       -0.3983846593
 N         -1.6222888756        0.1509313151       -0.4182398876
 C         -0.2873677448        0.5062509907       -0.3052957432
 C          0.1031334235        1.8460778431       -0.1470936271
 C          1.4267839993        2.1880614581       -0.0346155854
 C          2.4410652255        1.2040642199       -0.0217223787
 C          3.8252586304        1.5610406640        0.1073920248
 O          4.2095738088        2.7630158333        0.1785783057
 C          4.7470065028        0.4448226818        0.1041972234
 C          6.1319796989        0.6528937492        0.2013519555
 C          7.0001540751       -0.4176526725        0.2260117377
 C          6.5168930914       -1.7148935092        0.1524769360
 C          5.1495751338       -1.9413446688        0.0525523260
 C          4.2697043710       -0.8745040806        0.0246608411
 O          2.9370294184       -1.1732120467       -0.0831609767
 C          2.0439982651       -0.1475011573       -0.1254334702
 C          0.7163573691       -0.4889581985       -0.2378542399
 C         -2.0727650865       -1.1752865747       -0.4717066210
 C         -1.5443311848       -2.0840223274       -1.3863140361
 C         -2.0402780240       -3.3712038851       -1.4423757622
 C         -3.0762690557       -3.7490459872       -0.6048152004
 C         -3.6361057341       -2.8305194909        0.2698802307
 C         -3.1541676378       -1.5352721874        0.3466293293
 H         -4.9640057842       -1.7427815593        2.4653932332
 H         -5.7990699795       -1.0169868184        1.0820989619
 H         -5.4174755764       -0.0531141661        2.5184513861
 H         -1.7307154248        0.0429546619        2.0668913843
 H         -3.0836031536        0.5647142452        3.0690594150
 H         -2.6260406360       -1.1427268798        3.0153037294
 H         -5.7019055093        1.5032229557        1.0421375882
 H         -5.6684007265        3.4887054001       -0.3740006092
 H         -3.7559652022        3.9139168510       -1.8804258981
 H         -1.8617674687        2.3387337979       -1.9269595614
 H         -0.6406689712        2.6231636950       -0.0761154434
 H          1.7256078954        3.2166319156        0.0858491099
 H          6.4881622669        1.6692277060        0.2595860597
 H          8.0625609500       -0.2402470184        0.3033762530
 H          7.1954221925       -2.5536603172        0.1702525361
 H          4.7498291588       -2.9416274762       -0.0068649573
 H          0.4690746632       -1.5369240375       -0.2362973641
 H         -0.7728357486       -1.7646625864       -2.0698535970
 H         -1.6272124135       -4.0740419803       -2.1495466593
 H         -3.4644662312       -4.7552469102       -0.6435156651
 H         -4.4571629208       -3.1429715913        0.8941119171
