  90
 
 C         -6.8885493512       -4.6874689246        0.1364384723
 C         -7.9385807552       -4.2326570612        0.9185487940
 C         -8.2806855526       -2.8938375504        0.9099153674
 C         -7.5680292254       -1.9904007429        0.1221097128
 C         -7.9667166212       -0.5895797557        0.1298659283
 N         -9.2125359338       -0.2038626311        0.2187669760
 C         -9.1939111038        1.1626025485        0.1482310451
 C        -10.2368382914        2.0816856980        0.2004819937
 C         -9.9148331500        3.4206233043        0.1271680853
 C         -8.5907118457        3.8508853980        0.0149580709
 C         -7.5406905438        2.9559647179       -0.0424593399
 C         -7.8580169753        1.6079531012        0.0100701452
 N         -7.0870298825        0.4657134861       -0.0001965035
 C         -5.6835599450        0.4293418575       -0.0152824288
 C         -4.9855635065       -0.2877410580        0.9550265171
 C         -3.6083644658       -0.3085849419        0.9407267836
 C         -2.8824241515        0.4052445130       -0.0220218857
 C         -1.4251641676        0.4029287526       -0.0210147434
 C         -0.7139427837        1.6426805068        0.0061168781
 C         -1.3743802953        2.8694988104        0.1246935574
 C         -0.6851831457        4.0788476303        0.0628461952
 C          0.6803394393        4.0793706100       -0.1249164854
 C          1.3711163697        2.8706312643       -0.1806359914
 C          0.7120493336        1.6435789720       -0.0572388485
 C          1.4257389840        0.4053504304       -0.0236117788
 C          2.8829862826        0.4125539943       -0.0094794200
 C          3.6224709301       -0.2991132901       -0.9633352732
 C          4.9997650082       -0.2739052417       -0.9611286685
 C          5.6838998322        0.4453427852        0.0173201756
 N          7.0873553273        0.4847641454        0.0196049724
 C          7.9704689408       -0.5687336958       -0.1014531271
 C          7.5736386033       -1.9701228532       -0.0990115426
 C          8.2941224517       -2.8716904857       -0.8817916573
 C          7.9526753614       -4.2106389666       -0.8962593639
 C          6.8954693514       -4.6674163528       -0.1250307422
 C          6.1914134728       -3.7810921975        0.6739027908
 C          6.5266122334       -2.4397347296        0.6922945111
 N          9.2163597375       -0.1805694003       -0.1775136242
 C          9.1942166730        1.1859133767       -0.1074308623
 C         10.2356679256        2.1071548130       -0.1500281778
 C          9.9101299091        3.4454637856       -0.0808037884
 C          8.5841113754        3.8730127099        0.0183141310
 C          7.5354429354        2.9759329660        0.0658014157
 C          7.8560929052        1.6285742839        0.0170401542
 C          4.9649400790        1.1485746745        0.9815298199
 C          3.5868609797        1.1385258154        0.9596991394
 C          0.7148678904       -0.8344284950        0.0041357413
 C          1.3768769050       -2.0609739262        0.1154609578
 C          0.6870887817       -3.2703417922        0.0614077650
 C         -0.6805910622       -3.2712642831       -0.1103320400
 C         -1.3721141933       -2.0627922823       -0.1627701650
 C         -0.7117404909       -0.8354769067       -0.0506988484
 C         -3.5999988519        1.1274651600       -0.9838607674
 C         -4.9783534006        1.1333910226       -0.9889540381
 C         -6.5281559419       -2.4579756436       -0.6797525553
 C         -6.1922015841       -3.7992146779       -0.6670817212
 H         -6.6195113644       -5.7333476194        0.1459187689
 H         -8.4925755336       -4.9236770394        1.5366521083
 H         -9.0982911349       -2.5240102593        1.5096673950
 H        -11.2568792780        1.7453527949        0.3006939572
 H        -10.7021416282        4.1592736130        0.1649935427
 H         -8.3844099459        4.9102501034       -0.0267217532
 H         -6.5180771981        3.2940384684       -0.1182855778
 H         -5.5326280491       -0.8197077207        1.7194823951
 H         -3.0761824166       -0.8466558178        1.7108061329
 H         -2.4427987429        2.8851104307        0.2746998769
 H         -1.2292604234        5.0077673898        0.1481108901
 H          1.2231567492        5.0086049114       -0.2146137192
 H          2.4397225322        2.8867517589       -0.3294361259
 H          3.1016120376       -0.8389356263       -1.7398541114
 H          5.5576083023       -0.8043742210       -1.7188052631
 H          9.1169869417       -2.5002956453       -1.4733309280
 H          8.5126611135       -4.9001728288       -1.5106130396
 H          6.6267680764       -5.7133361308       -0.1393754012
 H          5.3799634866       -4.1366806749        1.2919041174
 H          5.9869478241       -1.7608436523        1.3362105585
 H         11.2573556365        1.7729385006       -0.2400786463
 H         10.6962067746        4.1857553862       -0.1114985648
 H          8.3751641113        4.9319654356        0.0572350063
 H          6.5114075290        3.3118981923        0.1310893663
 H          5.4952009982        1.6847098420        1.7550275781
 H          3.0373310058        1.6672559560        1.7244293776
 H          2.4470569801       -2.0759231301        0.2501425745
 H          1.2327256614       -4.1988020828        0.1403806614
 H         -1.2248741242       -4.2004260426       -0.1903201061
 H         -2.4423917629       -2.0790796146       -0.2966355097
 H         -3.0616034486        1.6563940469       -1.7563131973
 H         -5.5195839386        1.6671871101       -1.7564599688
 H         -5.9949013649       -1.7776445699       -1.3274522291
 H         -5.3863706593       -4.1532452841       -1.2932778780
