72

C     -7.403587   -0.595931    1.119681
C     -6.511080   -0.000001    0.000007
C     -7.403582    0.595929   -1.119670
C     -5.676660    1.137481    0.605413
C     -6.327636    2.249255    1.196991
C     -5.616049    3.306387    1.758758
C     -4.233216    3.279027    1.743070
C     -3.572392    2.194152    1.165681
C     -4.270239    1.105927    0.588257
N     -3.561464    0.000015   -0.000023
C     -2.127335    0.000017   -0.000019
C     -1.418892    0.551065   -1.075291
C     -0.021067    0.550152   -1.073202
C      0.700308    0.000017   -0.000007
C      2.171151    0.000009   -0.000004
C      2.892531    1.189523   -0.147979
C      4.284022    1.160785   -0.150965
C      5.117154    2.373030   -0.303817
C      6.378631    2.456831    0.317158
C      7.186775    3.592616    0.189192
C      6.751201    4.676921   -0.572784
C      7.574461    5.842458   -0.708726
N      8.237312    6.788668   -0.820016
C      5.508122    4.616026   -1.205903
C      4.703668    3.476457   -1.073249
N      4.968115   -0.000006   -0.000001
C      4.284007   -1.160790    0.150965
C      5.117122   -2.373045    0.303821
C      4.703632   -3.476449    1.073283
C      5.508071   -4.616027    1.205946
C      6.751138   -4.676953    0.572805
C      7.574383   -5.842501    0.708755
N      8.237223   -6.788718    0.820048
C      7.186715   -3.592671   -0.189202
C      6.378584   -2.456877   -0.317177
C      2.892517   -1.189512    0.147974
C     -0.021076   -0.550116    1.073183
C     -1.418899   -0.551029    1.075261
C     -4.270238   -1.105908   -0.588279
C     -3.572389   -2.194120   -1.165723
C     -4.233213   -3.279004   -1.743099
C     -5.616046   -3.306386   -1.758746
C     -6.327635   -2.249267   -1.196954
C     -5.676659   -1.137481   -0.605398
H     -6.791790   -1.023934    1.923866
H     -8.060776    0.153855    1.573491
H     -8.060754   -1.391146    0.751192
H     -8.060772   -0.153856   -1.573475
H     -6.791780    1.023926   -1.923857
H     -8.060743    1.391151   -0.751183
H     -7.413904    2.303117    1.226175
H     -6.143484    4.144882    2.205161
H     -3.662689    4.095424    2.176944
H     -2.485876    2.217369    1.176844
H     -1.961372    0.977777   -1.915496
H      0.502229    0.973811   -1.928101
H      2.361058    2.132524   -0.234195
H      6.741229    1.621009    0.915988
H      8.154053    3.616201    0.687626
H      5.156509    5.449264   -1.812039
H      3.751929    3.458412   -1.600633
H      3.751907   -3.458376    1.600689
H      5.156458   -5.449248    1.812104
H      8.153979   -3.616282   -0.687656
H      6.741183   -1.621071   -0.916028
H      2.361032   -2.132509    0.234187
H      0.502213   -0.973776    1.928087
H     -1.961388   -0.977740    1.915462
H     -2.485873   -2.217319   -1.176923
H     -3.662685   -4.095387   -2.177000
H     -6.143480   -4.144889   -2.205138
H     -7.413902   -2.303144   -1.226113
