  92
 
 C         -9.1506416673       -2.3100111241       -1.6353726464
 C         -7.8866749843       -1.6065393865       -1.2413259984
 C         -6.6633486949       -1.9916702008       -1.7748719775
 C         -5.4820447231       -1.3675237693       -1.4136156013
 C         -4.2093280033       -1.8275452629       -2.0676658985
 C         -5.4843523803       -0.3218897599       -0.4660666671
 B         -4.1516714729        0.3587544665       -0.0027632433
 C         -3.9832438290        1.9128728066        0.0707852939
 C         -4.3945781517        2.7460987561       -0.9935516199
 C         -5.0153854204        2.1661809295       -2.2322330429
 C         -4.1935847140        4.1129105852       -0.9323825815
 C         -3.6056961816        4.7187210028        0.1730990531
 C         -3.4239262579        6.2062192541        0.2209706039
 C         -3.2240352453        3.9063537061        1.2310346468
 C         -3.4110513150        2.5340181123        1.2008527990
 C         -2.9997665569        1.7388490970        2.4080561620
 N         -3.0250882819       -0.4829057836        0.3641625208
 C         -3.0992685863       -1.7115277098        1.0237174067
 C         -4.2143801300       -2.3704890362        1.5099505316
 C         -4.0295638427       -3.5896596961        2.1506113782
 C         -2.7621235408       -4.1342668552        2.3143977839
 C         -1.6369491930       -3.4673350676        1.8562524790
 C         -1.8027504498       -2.2467540684        1.2187501932
 C         -0.8858771107       -1.2951779014        0.6544353390
 C          0.4797722064       -1.2479386760        0.5592667577
 C          1.1091225603       -0.1321073071       -0.0350391724
 C          2.5390724785       -0.0483140794       -0.1058622435
 C          3.1985959196        1.2134056811       -0.1419521529
 C          4.5640024014        1.3330109895       -0.1682279463
 C          5.3338908269        0.1671826676       -0.1810075543
 C          4.7036649946       -1.1100981174       -0.2053300873
 C          3.3345837964       -1.2163648062       -0.1477200649
 C          5.7651307698       -2.0795354351       -0.2976899125
 C          5.7881129671       -3.4652050349       -0.3503913916
 C          7.0154826357       -4.1060200978       -0.4073285422
 C          8.2020555000       -3.3821282773       -0.3946283533
 C          8.2026920361       -1.9961529365       -0.3427923113
 C          6.9767516802       -1.3500535394       -0.3149721998
 N          6.6952085837        0.0055593825       -0.2435747299
 C          7.6459335517        1.0334463686       -0.1831234341
 C          8.6801919800        1.0928200847       -1.1159721400
 C          9.6173854431        2.1057700406       -1.0416310727
 C          9.5318184707        3.0686902640       -0.0475611689
 C          8.5002425807        3.0137543932        0.8775286548
 C          7.5612044623        2.0021382757        0.8163877432
 C          0.2761493106        0.9050828163       -0.5667094123
 C         -1.0889799661        0.8561807149       -0.5028382636
 C         -1.7001358612       -0.2271296434        0.1428729838
 C         -6.7318941259        0.0865540324        0.0518012154
 C         -6.8238533100        1.1980900209        1.0579725313
 C         -7.8960358641       -0.5591528798       -0.3293806202
 H         -9.2288180600       -3.2627584225       -1.1086240097
 H         -9.1592210409       -2.5192047005       -2.7039436791
 H        -10.0239961885       -1.7111544377       -1.3862097357
 H         -6.6356671705       -2.7951166467       -2.4996061071
 H         -3.5171057179       -1.0012830732       -2.2137370553
 H         -4.4218383526       -2.2804574585       -3.0345642471
 H         -3.7133233623       -2.5778468523       -1.4500589396
 H         -5.0505771489        2.9085518946       -3.0272692111
 H         -6.0319792485        1.8304669749       -2.0321037272
 H         -4.4508725806        1.3043579729       -2.5816384592
 H         -4.5000455665        4.7308873093       -1.7667199071
 H         -4.3860482408        6.6991301215        0.3693380169
 H         -3.0049793802        6.5726319087       -0.7154472499
 H         -2.7642479125        6.4917077907        1.0372868403
 H         -2.7766587279        4.3567396947        2.1078141473
 H         -3.6526714360        0.8819530413        2.5600294505
 H         -3.0280722366        2.3619062582        3.3003608337
 H         -1.9801423262        1.3679717377        2.2917281970
 H         -5.2024399621       -1.9560653372        1.3910896839
 H         -4.8901485628       -4.1193396143        2.5316062350
 H         -2.6527222609       -5.0853983475        2.8149426951
 H         -0.6511411244       -3.8855261128        1.9951773700
 H          1.0744446811       -2.0414565595        0.9853116097
 H          2.6005578692        2.1101492194       -0.1031354030
 H          5.0315544799        2.3060283424       -0.1846694179
 H          2.8693484392       -2.1884787320       -0.1900671858
 H          4.8683516865       -4.0302656793       -0.3443107338
 H          7.0531815554       -5.1845044149       -0.4531440723
 H          9.1449317823       -3.9081862771       -0.4222938340
 H          9.1301857376       -1.4452969385       -0.3145296653
 H          8.7301034468        0.3567678363       -1.9043859047
 H         10.4153353115        2.1484912274       -1.7682597639
 H         10.2653495761        3.8588796245        0.0057561230
 H          8.4319660302        3.7586236428        1.6566647320
 H          6.7701629315        1.9416290106        1.5490550264
 H          0.7441313575        1.7257699345       -1.0869378439
 H         -1.6899452486        1.6394614383       -0.9378107679
 H         -6.6505014694        2.1623252188        0.5818052997
 H         -6.0730946502        1.0801228061        1.8364548838
 H         -7.8090253814        1.2171125002        1.5200935453
 H         -8.8390366392       -0.2394935327        0.0954179871
