  74
 
 N         -3.3816076909       -5.4726427842        0.3942783254
 C         -2.4166957990       -4.8334057158        0.2880203305
 C         -1.2275336372       -4.1382001499        0.1963914703
 C          0.0001773655       -4.8541569397        0.2589116713
 C          1.1903376864       -4.1988599982        0.2513544307
 C          1.2064551793       -2.7683051896        0.1878985402
 C          2.3982007060       -1.9747630217        0.1968451592
 C          3.6902777395       -2.5130837123        0.3820553430
 C          4.8035618067       -1.7097149620        0.3875768226
 C          4.6821112989       -0.3285459610        0.2148811218
 N          5.8323022737        0.4982680701        0.2256132832
 C          6.0243152088        1.4190562739        1.2440270603
 C          5.1328999537        1.5445481569        2.3098429767
 C          5.3553680844        2.4759038412        3.3067381217
 C          6.4725747349        3.2958741793        3.2684974842
 C          7.3825480667        3.1701888134        2.2324109960
 C          7.1684070840        2.2380603357        1.2296725747
 O          8.1162914977        2.1432343483        0.2497559396
 C          7.9191414057        1.2244633758       -0.7424050995
 C          8.8856724888        1.1408899310       -1.7318705633
 C          8.7316606503        0.2475793976       -2.7785189323
 C          7.6001585988       -0.5510382074       -2.8411387766
 C          6.6313633404       -0.4748886087       -1.8581236849
 C          6.7799552980        0.3992870899       -0.7810732458
 C          3.4108388852        0.2296710669        0.0325706071
 C          2.3027116921       -0.5740678885        0.0224626697
 N          0.0406759728       -2.1087753350        0.1094344434
 C         -1.1242901575       -2.7083827842        0.0942272853
 C         -2.2832095481       -1.8306674477       -0.0284891953
 C         -3.4794858459       -2.2347489923       -0.6302274220
 C         -4.5488550660       -1.3694726285       -0.7258315757
 C         -4.4488593773       -0.0747698304       -0.2239014723
 N         -5.5559121193        0.8093056762       -0.3068531173
 C         -5.5111004970        1.9121331282       -1.1473234675
 C         -4.4142802380        2.1791274089       -1.9649481030
 C         -4.4059472538        3.2892827910       -2.7898321265
 C         -5.4909674665        4.1504790111       -2.8220241397
 C         -6.5984182702        3.8910398426       -2.0319132815
 C         -6.6158318528        2.7805484035       -1.2037290842
 O         -7.7462778366        2.5672202087       -0.4643024275
 C         -7.7801790180        1.4687663404        0.3496392438
 C         -8.9312701742        1.2647384449        1.0929600182
 C         -9.0204114751        0.1816002918        1.9512623236
 C         -7.9502522216       -0.6903158338        2.0721732714
 C         -6.7973726745       -0.4943957920        1.3336976190
 C         -6.6960445404        0.5782843798        0.4494183541
 C         -3.2563429312        0.3502022965        0.3606692700
 C         -2.1919250550       -0.5165009388        0.4511420307
 H         -0.0408513954       -5.9352657145        0.3148103838
 H          2.1141747246       -4.7526764083        0.2975910233
 H          3.8168749272       -3.5729801404        0.5384912357
 H          5.7835532598       -2.1387728108        0.5428525312
 H          4.2688556564        0.9011205212        2.3508520642
 H          4.6511536798        2.5567029627        4.1199880363
 H          6.6432165807        4.0237426360        4.0455753090
 H          8.2698705254        3.7808532737        2.1823213589
 H          9.7458639973        1.7875157446       -1.6630565047
 H          9.4879937687        0.1846854373       -3.5445099676
 H          7.4655572309       -1.2372711709       -3.6626549809
 H          5.7467796415       -1.0882595266       -1.9183963216
 H          3.3182143330        1.2961144667       -0.1160916565
 H          1.3210459603       -0.1561063939       -0.1357364064
 H         -3.5672829769       -3.2285505388       -1.0407899763
 H         -5.4662049701       -1.6913634816       -1.1968458488
 H         -3.5716125849        1.5066752114       -1.9522318491
 H         -3.5451262616        3.4771007217       -3.4123208558
 H         -5.4828108259        5.0169874073       -3.4637564131
 H         -7.4639539528        4.5340564880       -2.0437562427
 H         -9.7414143073        1.9681892233        0.9854226867
 H         -9.9194573931        0.0262753510        2.5259477054
 H         -8.0065811741       -1.5298929324        2.7472854446
 H         -5.9660012590       -1.1730254198        1.4396341605
 H         -3.1814367945        1.3549449053        0.7501740390
 H         -1.2670566868       -0.2040553704        0.9105359848
