  91
 
 O          8.9699531112       -2.9351660426       -0.0289735220
 S          8.7259970749       -1.6163224518       -0.5740058076
 O          9.2338216281       -1.3512698920       -1.9035454605
 C          9.3770821266       -0.3831390154        0.5558064944
 C          9.1552373473       -0.5469413573        1.9102224636
 C          9.6204200529        0.4169507095        2.7895561268
 C         10.2936617271        1.5281529309        2.3037525275
 C         10.5095304261        1.6802132291        0.9427767371
 C         10.0453228836        0.7187168614        0.0590725750
 C          6.9553449870       -1.3130691995       -0.5624766018
 C          6.4707715549       -0.1896964535       -1.2071128641
 C          5.1139206651        0.0752934810       -1.1782047607
 C          4.2519718450       -0.7835851644       -0.4981567550
 N          2.8614335907       -0.5123556481       -0.4685087851
 C          2.3943417571        0.5494295661        0.2995562492
 C          3.2791362757        1.3038255166        1.0753948658
 C          2.8275930051        2.3620138813        1.8381084928
 C          1.4820642670        2.6877333204        1.8535380525
 C          0.5988522899        1.9280945981        1.1099820628
 C          1.0331497168        0.8603631985        0.3383633625
 C         -0.0043745042        0.0570053674       -0.4200611990
 C          0.6228419109       -1.0751287304       -1.2088610030
 C         -0.2114598704       -1.8880454983       -1.9618087366
 C          0.2895111540       -2.9203786826       -2.7320355366
 C          1.6571000622       -3.1338713501       -2.7627587188
 C          2.5033720154       -2.3359838651       -2.0194797323
 C          2.0000665064       -1.3077443211       -1.2174652649
 C         -0.9707347846       -0.5423805968        0.5817670025
 C         -0.4689686573       -1.4232159299        1.5286711173
 C         -1.2940512429       -2.0391310034        2.4504696677
 C         -2.6541315252       -1.7835259499        2.4116555590
 C         -3.1718667690       -0.9084561622        1.4780873213
 C         -2.3381208898       -0.2580378453        0.5637873510
 N         -2.8702799582        0.6279754363       -0.3681828096
 C         -4.2582674065        0.9085488258       -0.3382825322
 C         -5.0879297348        0.4316362106       -1.3517573279
 C         -6.4433139419        0.7045694463       -1.3195945212
 C         -6.9600529681        1.4527771033       -0.2780359658
 S         -8.7311546099        1.7439989838       -0.2097308924
 O         -9.2351873889        1.8617174593       -1.5616439236
 O         -8.9823781714        2.8531957548        0.6860630814
 C         -9.3738465321        0.2380289566        0.5250667359
 C         -9.2997728733        0.0816830452        1.8961733653
 C         -9.7470690441       -1.1000695729        2.4640460625
 C        -10.2552972502       -2.1059825569        1.6556765846
 C        -10.3253248088       -1.9358157160        0.2814537340
 C         -9.8788325737       -0.7554998100       -0.2910450215
 C         -6.1500828362        1.9325771307        0.7340366947
 C         -4.7936453078        1.6636332697        0.7033694117
 C         -2.0732284570        1.2465680671       -1.3265218325
 C         -2.6257489359        2.1696233640       -2.2191527441
 C         -1.8455129646        2.7813898887       -3.1795170244
 C         -0.4934734636        2.4963465367       -3.2668416625
 C          0.0644369655        1.6085962039       -2.3666356894
 C         -0.7028148321        0.9849060616       -1.3938534481
 C          4.7557005745       -1.9098137675        0.1487473509
 C          6.1135322272       -2.1737604463        0.1156036973
 H          8.6388423687       -1.4284331081        2.2561831216
 H          9.4582056167        0.3009334260        3.8502152978
 H         10.6555584346        2.2781400114        2.9908406335
 H         11.0373566514        2.5441241014        0.5688206339
 H         10.2004431537        0.7969351473       -1.0058908551
 H          7.1565908929        0.4504963983       -1.7385799719
 H          4.7141840966        0.9442759826       -1.6784417519
 H          4.3291872373        1.0556860045        1.0851823795
 H          3.5329919683        2.9313233840        2.4250946687
 H          1.1238822209        3.5164158721        2.4449545477
 H         -0.4559748661        2.1612030921        1.1238290022
 H         -1.2750620651       -1.6996627110       -1.9398204686
 H         -0.3766812311       -3.5437268252       -3.3085885225
 H          2.0726767825       -3.9237734506       -3.3709743345
 H          3.5675442894       -2.5081710485       -2.0672774972
 H          0.5919417150       -1.6270632330        1.5348091067
 H         -0.8830757330       -2.7185710535        3.1813747235
 H         -3.3203162799       -2.2694884844        3.1090288729
 H         -4.2360228888       -0.7323605345        1.4531499239
 H         -4.6645225469       -0.1470845853       -2.1586207538
 H         -7.1055159214        0.3570004244       -2.0963163953
 H         -8.9113328847        0.8892986286        2.4963128942
 H         -9.6998274964       -1.2347247071        3.5338496278
 H        -10.6031163724       -3.0263221142        2.1001056881
 H        -10.7271623340       -2.7184787722       -0.3436673138
 H         -9.9281767210       -0.5816476881       -1.3546397135
 H         -6.5907102683        2.5268583715        1.5187867851
 H         -4.1444336210        2.0328539090        1.4828020041
 H         -3.6745049140        2.4161754440       -2.1571151094
 H         -2.2993115569        3.4874344447       -3.8592970917
 H          0.1199394629        2.9678272739       -4.0193613837
 H          1.1214251339        1.3895580418       -2.4110880984
 H          4.0809886400       -2.5729914071        0.6685931891
 H          6.5347405909       -3.0412106100        0.5991905575
