  99
 
 C         -4.4034415171       -4.4057312372        0.4508300959
 C         -3.1517287518       -4.7458293874        0.9411997023
 C         -2.0806855239       -3.8902003557        0.7620970114
 C         -2.2593540152       -2.6780530494        0.1002236023
 C         -1.1245907720       -1.7733842008       -0.1001094998
 N         -1.3743850009       -0.4841599529       -0.2756929513
 C         -0.3022475461        0.2890581279       -0.4328697371
 N         -0.5154444410        1.6108308220       -0.7308979439
 C          0.4992793909        2.4117390439       -1.2822831996
 C          1.8465233210        2.4488918550       -0.9794410836
 C          2.6449126787        3.3449186343       -1.6719816113
 C          2.1135939706        4.1860075203       -2.6429268235
 C          0.7633181725        4.1591312843       -2.9412033852
 C         -0.0502190782        3.2712707125       -2.2519377980
 C         -1.4680936344        3.0130815919       -2.2883288569
 C         -2.4630882850        3.5137718482       -3.1275671970
 C         -3.7550570166        3.0659272777       -2.9711975618
 C         -4.0538674785        2.2241645988       -1.9017084784
 C         -5.3074037724        1.7239180715       -1.4153866660
 C         -6.6098129429        1.8153245968       -1.8921813950
 C         -7.6277960585        1.2598565944       -1.1444542275
 C         -7.3584799707        0.6421905718        0.0750157919
 C         -6.0708986515        0.5429666827        0.5681379917
 C         -5.0361739500        1.0647623267       -0.1959339180
 N         -3.6712873026        1.1020146376        0.0561265799
 C         -3.1539129723        1.0007380926        1.3596521405
 C         -3.4294083024       -0.1087413639        2.1518922448
 C         -3.0732878554       -0.1112331724        3.4880449087
 C         -2.4370602858        0.9852140554        4.0460084081
 C         -2.1155112106        2.0707175763        3.2464938307
 C         -2.4688592453        2.0811412670        1.9103854807
 C         -3.0643105644        1.7769727231       -0.9880315325
 C         -1.7352965670        2.0665075253       -1.2780852384
 N          0.9536893990       -0.1519220434       -0.4361807847
 C          1.0801588665       -1.4722380667       -0.3845467985
 N          2.3105541485       -2.0088074246       -0.6972268203
 C          2.4311478540       -3.0913076162       -1.5801368609
 C          1.5617346366       -4.1423493171       -1.8113941174
 C          1.9218670692       -5.0843793252       -2.7611919162
 C          3.1154602678       -4.9834995528       -3.4681172652
 C          3.9832460068       -3.9312282976       -3.2446473634
 C          3.6426444218       -2.9781741388       -2.2944941268
 C          4.3129234979       -1.7979588059       -1.8108002737
 C          5.5240056576       -1.2009181964       -2.1661462005
 C          5.9430094583       -0.0732657161       -1.4956743267
 C          5.1995512070        0.3902291702       -0.4097294421
 C          5.4401551189        1.4282967521        0.5534212677
 C          6.4458996658        2.3768827546        0.6960273214
 C          6.4121405005        3.2186247081        1.7895345890
 C          5.4039895090        3.1096413640        2.7449912950
 C          4.3942405592        2.1730797715        2.6256606112
 C          4.4058253044        1.3440956024        1.5137447776
 N          3.5329416833        0.3285274591        1.1567303731
 C          2.6015723452       -0.2809734275        2.0111092064
 C          1.6211155319        0.4675654835        2.6516028510
 C          0.7423249508       -0.1525440393        3.5202192081
 C          0.8170261775       -1.5173011087        3.7423965682
 C          1.7874886065       -2.2660095835        3.0982576353
 C          2.6826635849       -1.6521461405        2.2432660296
 C          3.9982098478       -0.2415193261       -0.0124307875
 C          3.4918494437       -1.2668466293       -0.7975869701
 N          0.0844152095       -2.3228573481       -0.1625124828
 C         -3.5181240046       -2.3422093116       -0.3937171920
 C         -4.5837193736       -3.2062063039       -0.2208813794
 H         -5.2376179368       -5.0774882071        0.5889237035
 H         -3.0112731638       -5.6820171301        1.4611593226
 H         -1.0988944183       -4.1416237882        1.1338237387
 H          2.2590132311        1.7992286545       -0.2313835652
 H          3.6995018279        3.3908518070       -1.4446287009
 H          2.7634556269        4.8729585774       -3.1641309447
 H          0.3460340882        4.8188035702       -3.6865983570
 H         -2.2072611795        4.2216864522       -3.8999649285
 H         -4.5400683592        3.3903550806       -3.6361390969
 H         -6.8145058902        2.3136760146       -2.8275603268
 H         -8.6465301020        1.3125931731       -1.4984616593
 H         -8.1748643925        0.2341591184        0.6524920661
 H         -5.8881415903        0.0795817377        1.5243678222
 H         -3.9135629710       -0.9681740888        1.7168201847
 H         -3.3049403313       -0.9721295448        4.0980623918
 H         -2.1939193185        0.9942625480        5.0986148156
 H         -1.6052975774        2.9243675951        3.6691747025
 H         -2.2466161548        2.9427100017        1.2966994756
 H          0.6361945063       -4.2208023497       -1.2653048383
 H          1.2607876178       -5.9169225807       -2.9515125831
 H          3.3655015816       -5.7386401492       -4.1982648400
 H          4.9096868552       -3.8491753440       -3.7922311588
 H          6.1165028290       -1.6228178027       -2.9627277621
 H          6.8580758496        0.4260685718       -1.7734993322
 H          7.2361745409        2.4479890003       -0.0357726976
 H          7.1814659043        3.9655193104        1.9160955551
 H          5.4121444741        3.7689092434        3.6003388131
 H          3.6308062712        2.0856725066        3.3833069606
 H          1.5395634543        1.5261752615        2.4542999478
 H         -0.0172038929        0.4326800763        4.0130372083
 H          0.1216108866       -1.9942854349        4.4161822741
 H          1.8570679003       -3.3305445156        3.2678584699
 H          3.4581799032       -2.2300934307        1.7614593993
 H         -3.6408645483       -1.4070769394       -0.9179081168
 H         -5.5561384944       -2.9425186595       -0.6100622529
