  45
 
 C          3.2190545064        3.0782452952        0.7339383692
 C          2.8781654910        2.8303509800       -0.5872533041
 C          2.9058389996        1.5347085666       -1.0748061541
 C          3.2793411499        0.5031491057       -0.2324328494
 C          3.6231016064        0.7392529151        1.0864044848
 C          3.5965272229        2.0357310273        1.5694038961
 S          3.1810081212       -1.1937177709       -0.8080150761
 O          2.9871485414       -1.1867098942       -2.2341672946
 O          4.2693894355       -1.9625990349       -0.2664379959
 C          1.6590588624       -1.7016575379       -0.0048973642
 C          1.6343514114       -2.7451027675        0.9168800024
 C          0.4391581645       -3.0363714178        1.5601365404
 C         -0.6954386289       -2.2885199151        1.3190636769
 C         -0.6537388752       -1.2169402027        0.4022625522
 C          0.5416670820       -0.9460391026       -0.2671930881
 N         -1.7593708837       -0.4107150995        0.1846532790
 C         -3.0498508661       -0.8102330205       -0.0064754182
 C         -3.5890426230       -2.0840659296       -0.0861572819
 C         -4.9485043556       -2.2042348138       -0.3197805390
 C         -5.7643890283       -1.0538267379       -0.4733500972
 C         -5.2534537025        0.2150250821       -0.4222468820
 C         -3.8693215762        0.3790767555       -0.2076428603
 C         -3.0122054549        1.4863751268       -0.1379412921
 C         -3.2094348176        2.8835868950       -0.2422940627
 C         -2.1173769233        3.7262218707       -0.0362749038
 C         -0.8688771921        3.2331098864        0.2660450166
 C         -0.6435905185        1.8237061307        0.3630258976
 C         -1.7026783051        0.9939695884        0.1253534240
 H          3.1952038622        4.0882758688        1.1153039092
 H          2.5893081536        3.6440362519       -1.2353938250
 H          2.6551344338        1.3039465541       -2.0985296592
 H          3.9151100400       -0.0930068588        1.7077291825
 H          3.8663954766        2.2360686876        2.5953202711
 H          2.5390443564       -3.2998899648        1.1008491915
 H          0.3993850141       -3.8452017455        2.2741647038
 H         -1.6065776223       -2.4801598170        1.8636577296
 H          0.5849831882       -0.1753308472       -1.0206994125
 H         -2.9671643245       -2.9603831728        0.0104891016
 H         -5.3975053688       -3.1809073258       -0.3944080560
 H         -6.8206307873       -1.1985609212       -0.6480813663
 H         -5.8837858978        1.0805472832       -0.5516255173
 H         -4.1833850600        3.2795571600       -0.4784042981
 H         -2.2607067252        4.7942351627       -0.1119907087
 H         -0.0371284678        3.8967670336        0.4358543956
 H          0.3345347561        1.4595783646        0.6359346195
