90

C      8.455607    3.063910   -0.408717
C      8.320269    1.638906    0.188590
C      9.666171    1.209260    0.828065
C      8.000619    0.666931   -0.955857
C      8.903025    0.537394   -2.041550
C      8.657971   -0.329312   -3.103759
C      7.502589   -1.089817   -3.107500
C      6.601287   -0.978365   -2.048129
C      6.825174   -0.106178   -0.955596
N      5.878100   -0.013467    0.124003
C      4.698513   -0.828255    0.100682
C      4.704046   -2.099252    0.687195
C      3.551751   -2.894040    0.667798
C      2.363281   -2.447443    0.059310
C      1.135872   -3.272021    0.025217
C      1.149254   -4.663745    0.014580
C     -0.059871   -5.357783   -0.010250
C     -1.265863   -4.653662   -0.034374
C     -2.498940   -5.379128   -0.023391
N     -3.482941   -5.994715   -0.023419
C     -1.215976   -3.260343   -0.044375
C     -2.400538   -2.383742   -0.080306
C     -2.584203   -1.404665    0.912706
C     -3.699304   -0.562249    0.900209
C     -4.654684   -0.672729   -0.117494
N     -5.799957    0.190419   -0.134857
C     -7.022633   -0.242713    0.488551
C     -7.110793   -1.507280    1.119012
C     -8.283302   -1.953493    1.729715
C     -9.404454   -1.143404    1.729146
C     -9.344732    0.106815    1.118497
C     -8.164324    0.579474    0.491484
C     -8.153546    1.967200   -0.164688
C     -8.488095    3.020692    0.923142
C     -9.242869    1.990291   -1.268505
C     -6.812152    2.348851   -0.806198
C     -6.671308    3.605061   -1.448067
C     -5.476814    3.995945   -2.047965
C     -4.391395    3.138970   -2.022350
C     -4.508337    1.897895   -1.395455
C     -5.709136    1.476063   -0.775287
C     -4.475376   -1.631881   -1.122519
C     -3.359068   -2.473942   -1.105091
N     -0.033879   -2.583413   -0.006375
C      2.377216   -1.161825   -0.517174
C      3.525096   -0.362634   -0.501323
C      6.100276    0.879934    1.230334
C      5.162783    0.978564    2.286702
C      5.353320    1.833953    3.372490
C      6.491357    2.617835    3.432622
C      7.429474    2.541741    2.406125
C      7.255362    1.680674    1.293420
H      7.513180    3.388794   -0.867492
H      8.724783    3.809905    0.346933
H      9.231034    3.121690   -1.180300
H      9.593312    0.202243    1.257920
H      9.981465    1.884665    1.630831
H     10.487438    1.195932    0.103203
H      9.820764    1.120973   -2.070579
H      9.368166   -0.405899   -3.922412
H      7.294769   -1.769678   -3.928929
H      5.707008   -1.594276   -2.095693
H      5.608717   -2.465435    1.166709
H      3.597452   -3.863770    1.157474
H      2.081677   -5.219217    0.013957
H     -0.052476   -6.446222   -0.008800
H     -1.847222   -1.292309    1.706591
H     -3.824259    0.185046    1.679797
H     -6.256281   -2.178720    1.146417
H     -8.311469   -2.931993    2.201020
H    -10.323709   -1.478866    2.201074
H    -10.244014    0.718688    1.137424
H     -9.456975    2.835754    1.399689
H     -7.729064    3.021891    1.715653
H     -8.538772    4.037377    0.518347
H     -9.026071    1.251061   -2.049991
H    -10.240641    1.766574   -0.875601
H     -9.322192    2.967652   -1.756863
H     -7.505317    4.302448   -1.487850
H     -5.399309    4.965205   -2.532568
H     -3.452115    3.426826   -2.486131
H     -3.629299    1.258356   -1.402458
H     -5.208194   -1.717913   -1.921331
H     -3.244207   -3.194785   -1.912144
H      1.477291   -0.769810   -0.990282
H      3.504004    0.625029   -0.955138
H      4.252542    0.384243    2.282499
H      4.609858    1.882161    4.163217
H      6.651951    3.288392    4.272227
H      8.312252    3.172703    2.484555
