  85
 
 O         -1.5730539823        1.7334649264       -3.2522368992
 C         -1.6849534751        0.9353037394       -2.2721828278
 C         -2.9322219825        0.7923461056       -1.5802885145
 C         -3.0608717878        0.2461741716       -0.2833363569
 C         -4.2862315269        0.1626227967        0.3258935360
 C         -5.4335838553        0.6365739688       -0.3200230396
 N         -6.6967939215        0.5326689715        0.3151381588
 C         -7.3630960391        1.6683320183        0.7431102504
 C         -6.8165915584        2.9437305863        0.6033248236
 C         -7.5134550840        4.0569624269        1.0336409094
 C         -8.7626084216        3.9231463389        1.6179767629
 C         -9.3121020166        2.6632038190        1.7868288534
 C         -8.6209667536        1.5417477235        1.3599053239
 O         -9.2051953190        0.3251726663        1.5741120616
 C         -8.5302013497       -0.7871104514        1.1574227712
 C         -9.1311503618       -2.0154080818        1.3766980966
 C         -8.5080734223       -3.1782629276        0.9556104398
 C         -7.2883363757       -3.1079530246        0.3022576585
 C         -6.6803518167       -1.8868426786        0.0802836207
 C         -7.2809232053       -0.7062456754        0.5162881560
 C         -5.3189189626        1.2336010201       -1.5822737400
 C         -4.0978998400        1.3228502549       -2.1905038828
 C         -0.5057317756        0.1618182346       -1.8678975520
 C          0.7668998846        0.7188852112       -2.1023026295
 C          1.9239893867        0.0541475433       -1.7702241736
 C          1.8156587814       -1.2083920384       -1.1989503386
 C          0.5491033071       -1.8130576933       -1.0242879309
 C         -0.6086082389       -1.1396862769       -1.3710891405
 C          0.7954260357       -3.1308361639       -0.5027272768
 C         -0.0347030790       -4.1721045573       -0.1150858337
 C          0.5389919970       -5.3265029287        0.3829505298
 C          1.9206514980       -5.4403877978        0.5113783291
 C          2.7678174818       -4.4155246584        0.1331897885
 C          2.1988826866       -3.2642301671       -0.3921900882
 N          2.8037774860       -2.0959700586       -0.8146858199
 C          4.1814429342       -1.8583736466       -0.8497546851
 C          5.0362829158       -2.7883890596       -1.4384816930
 C          6.3988682628       -2.5564001544       -1.4533732800
 C          6.9238435998       -1.4046119316       -0.8964669764
 C          6.0740973471       -0.4719573149       -0.3052750575
 N          6.6040592009        0.6830735753        0.2830582785
 C          6.1822595068        1.9799638335        0.0603274244
 C          5.2098902222        2.4580876497       -0.8052033809
 C          5.0009262608        3.8228280905       -0.8549695196
 C          5.7474320417        4.7004130543       -0.0722493002
 C          6.7361341251        4.2337267735        0.7710011624
 C          6.9620562740        2.8654080722        0.8387384430
 C          7.8950735786        2.0536328554        1.5692854206
 C          8.8901829402        2.3407741636        2.4938447873
 C          9.6093644040        1.2952981589        3.0380305383
 C          9.3353221863       -0.0233972606        2.6828842666
 C          8.3500362558       -0.3339651409        1.7650717727
 C          7.6417185417        0.7141339681        1.1951310649
 C          4.7033079791       -0.7005407855       -0.2820226549
 H         -2.1813329880       -0.0736885819        0.2538680763
 H         -4.3759309361       -0.2502883654        1.3212851777
 H         -5.8398240869        3.0507077038        0.1598030112
 H         -7.0736594962        5.0345123395        0.9128737034
 H         -9.3064199022        4.7928668184        1.9505392746
 H        -10.2749229756        2.5251650879        2.2518476590
 H        -10.0874623951       -2.0360369699        1.8740040079
 H         -8.9801143700       -4.1318024828        1.1307724776
 H         -6.8053899386       -4.0092805639       -0.0414679417
 H         -5.7368601554       -1.8338087311       -0.4386250258
 H         -6.2074465128        1.6082887803       -2.0704231459
 H         -3.9900063268        1.7780767915       -3.1630276983
 H          0.8129023658        1.7009792633       -2.5468381167
 H          2.8875895056        0.4987309627       -1.9648192317
 H         -1.5664063097       -1.6300245484       -1.2924740869
 H         -1.1068424998       -4.0759110942       -0.1982278467
 H         -0.0894365380       -6.1501458777        0.6875334731
 H          2.3406124601       -6.3480507469        0.9191347919
 H          3.8365036311       -4.5080426948        0.2546746776
 H          4.6250998311       -3.6749134897       -1.8959289929
 H          7.0583174559       -3.2740984991       -1.9178366958
 H          7.9851221405       -1.2127308499       -0.9297083796
 H          4.6418839951        1.7898197588       -1.4332341754
 H          4.2450121742        4.2166584687       -1.5178480226
 H          5.5533656615        5.7606069277       -0.1370490843
 H          7.3273677335        4.9147817093        1.3643643886
 H          9.0905363356        3.3618271640        2.7814253362
 H         10.3895569667        1.4969362720        3.7568222676
 H          9.9030322877       -0.8218136252        3.1376210223
 H          8.1334239351       -1.3607170208        1.5112032342
 H          4.0464207890        0.0042273807        0.2049529688
