  56
 
 C        -10.1410664485        0.2918310991       -0.4829222793
 C         -9.7060366409       -0.8087038115       -1.2374266196
 C         -8.3846783218       -1.1571087760       -1.2530332655
 C         -7.4350528300       -0.4192152094       -0.5131140405
 C         -6.0696294402       -0.7536497548       -0.5091564685
 C         -5.1472393455       -0.0189124652        0.2077379784
 C         -3.7307439529       -0.3716828338        0.2026018341
 C         -3.3180456898       -1.6980958532        0.1829146795
 C         -1.9703827449       -2.0276548578        0.1911021904
 C         -0.9784481124       -1.0362987471        0.2041669220
 C          0.3901267106       -1.3429828577        0.2094334652
 C          1.3883620797       -0.3328247237        0.2112156333
 C          2.7415434014       -0.6378010478        0.2188089401
 C          3.7308089116        0.3720520269        0.2030690162
 C          5.1473066103        0.0192970533        0.2093518125
 C          5.6017583830       -1.0908812783        0.9606598413
 C          6.9211998088       -1.4309461848        0.9856708195
 C          7.8772684435       -0.6955441927        0.2509953814
 C          9.2453930018       -1.0274254137        0.2487035384
 C         10.1414188582       -0.2925721346       -0.4787710435
 C          9.7066714403        0.8066294582       -1.2353769666
 C          8.3853125738        1.1549773629       -1.2521325065
 C          7.4354018999        0.4183600658       -0.5113078646
 C          6.0699716496        0.7527773681       -0.5084807531
 C          3.3181084866        1.6984254627        0.1807951472
 C          1.9704392133        2.0279992922        0.1879395929
 C          0.9784977060        1.0366666745        0.2025389200
 C         -0.3900765110        1.3433584985        0.2068227746
 C         -1.3883123468        0.3332053656        0.2101771088
 C         -2.7414927925        0.6381928907        0.2167943496
 C         -5.6019645260        1.0925905946        0.9569137733
 C         -6.9214127948        1.4327095701        0.9808183881
 C         -7.8772029504        0.6960318596        0.2470586962
 C         -9.2453196176        1.0279357579        0.2436300592
 H        -11.1894110768        0.5525055544       -0.4818573410
 H        -10.4266629831       -1.3779763254       -1.8065353897
 H         -8.0457128337       -2.0043107186       -1.8325322096
 H         -5.7438615149       -1.5910499646       -1.1099118410
 H         -4.0552787327       -2.4873010050        0.1947546629
 H         -1.6717228531       -3.0661430521        0.1937084309
 H          0.6986840261       -2.3786564512        0.2090111870
 H          3.0444006064       -1.6746985671        0.2028472742
 H          4.8884692260       -1.6524775892        1.5459587281
 H          7.2576072547       -2.2727143438        1.5748407062
 H          9.5754025624       -1.8753203909        0.8324789593
 H         11.1897648684       -0.5532359347       -0.4768417043
 H         10.4275145017        1.3749117569       -1.8052006506
 H          8.0465639769        2.0011547978       -1.8332536070
 H          5.7444316689        1.5891116897       -1.1108415888
 H          4.0553326888        2.4876542236        0.1914100833
 H          1.6717813836        3.0664886516        0.1885217877
 H         -0.6986321926        2.3790301300        0.2043891170
 H         -3.0443482509        1.6750619776        0.1988314608
 H         -4.8888915137        1.6552093475        1.5414955382
 H         -7.2580414777        2.2755167740        1.5683758611
 H         -9.5755509864        1.8768523919        0.8257946449
