  126
 
 C         -5.1864247850       -9.5758558687       -0.2493041410
 C         -5.6674902088       -8.1318141865       -0.0081506490
 C         -7.1891518367       -8.1111946776        0.2350286869
 C         -4.9736968567       -7.5864464070        1.2237656873
 C         -5.1419678625       -8.2241416427        2.4454970177
 C         -4.5417519686       -7.7626328449        3.6028322566
 C         -3.7506758664       -6.6260201729        3.5529260213
 C         -3.5659560310       -5.9718235858        2.3548528898
 C         -4.1644952749       -6.4420551876        1.1784695200
 N         -3.9548659566       -5.7666783792       -0.0081711745
 C         -3.1419828309       -4.5960006435       -0.0048496273
 C         -1.7538209642       -4.7052506882       -0.0832348979
 C         -0.9728634538       -3.5723700799       -0.0814187587
 C         -1.5578822596       -2.2999249074       -0.0072712245
 C         -0.7383529921       -1.1077938447       -0.0129305900
 N          0.5928845525       -1.2528668427       -0.0119059205
 C          1.3148946136       -0.1254829871       -0.0203875923
 C          2.7575831182       -0.2354423051       -0.0213208970
 C          3.5604868484        0.9102786912       -0.1185779975
 C          4.9323406933        0.8081663975       -0.1163426856
 C          5.5394858998       -0.4431432036       -0.0107202328
 N          6.9606139559       -0.5441392167        0.0020196805
 C          7.6215662577       -0.8811362341       -1.1635325492
 C          6.8844780358       -1.1218350738       -2.3305793420
 C          7.5134342899       -1.4684615674       -3.5061028047
 C          8.8944068477       -1.5774738739       -3.5430015065
 C          9.6262672798       -1.3268349594       -2.3966522218
 C          9.0202914455       -0.9760144063       -1.1977930132
 C          9.8772319007       -0.6931906226        0.0195417932
 C         10.8140263160        0.4868855999       -0.3044110344
 C         10.7021755532       -1.9519172190        0.3511738214
 C          9.0388095691       -0.3339503785        1.2295096084
 C          9.6624393907       -0.0496117636        2.4369110328
 C          8.9455551337        0.2668897908        3.5764288663
 C          7.5611508191        0.2946419052        3.5236773598
 C          6.9149189941        0.0190786286        2.3387785878
 C          7.6383789045       -0.2855551285        1.1780923039
 C          4.7527806254       -1.5907807988        0.0860197621
 C          3.3806962148       -1.4878735895        0.0770638084
 N          0.7749125662        1.1000011623       -0.0261300197
 C         -0.5626430814        1.1618266005       -0.0237392196
 C         -1.1867810582        2.4672883564       -0.0231050570
 C         -2.5808323701        2.5937422618       -0.1078380148
 C         -3.1748544727        3.8347682427       -0.1015287346
 C         -2.3903082413        4.9838829786       -0.0049504864
 N         -3.0059230430        6.2690776739        0.0117414317
 C         -3.0758668171        6.9947556959       -1.1617285552
 C         -2.5564431353        6.4481222408       -2.3426860137
 C         -2.6040907753        7.1490629172       -3.5275512051
 C         -3.1755625748        8.4110134473       -3.5593726594
 C         -3.7000489124        8.9487641050       -2.3982547561
 C         -3.6667470795        8.2661397445       -1.1896369203
 C         -4.2685147612        8.9019250842        0.0473520659
 C         -3.5322005887       10.2254170769        0.3323908544
 C         -5.7631697220        9.1706269530       -0.2143581730
 C         -4.1392229773        8.0063517757        1.2629307809
 C         -4.6402809869        8.4320970564        2.4857536350
 C         -4.5374370967        7.6613360040        3.6294362815
 C         -3.9093183883        6.4279036772        3.5647663812
 C         -3.4023953051        5.9790988768        2.3651110864
 C         -3.5164963917        6.7514482096        1.2015212381
 C         -1.0025430420        4.8724046121        0.0779046100
 C         -0.4093795518        3.6310277548        0.0658509965
 N         -1.3536030909        0.0817981466       -0.0192281868
 C         -2.9549130201       -2.2047370699        0.0712567606
 C         -3.7364819667       -3.3367948982        0.0746001650
 C         -4.5248062907       -6.1813698452       -1.1962577986
 C         -4.2581485326       -5.4706663413       -2.3740183807
 C         -4.8174504569       -5.8536912079       -3.5732138873
 C         -5.6538202507       -6.9574307156       -3.6225205035
 C         -5.9105000793       -7.6677482090       -2.4640177966
 C         -5.3598923999       -7.3069406815       -1.2416248093
 H         -5.4037960488      -10.2040197517        0.6095417799
 H         -5.6750657191      -10.0055202805       -1.1188432380
 H         -4.1112250923       -9.5847892325       -0.4191958614
 H         -7.7229831528       -8.5077109233       -0.6236898908
 H         -7.4492857164       -8.7080155704        1.1043804909
 H         -7.5230829355       -7.0893831661        0.4066324517
 H         -5.7602268323       -9.1066386004        2.5026426799
 H         -4.6928955043       -8.2832962389        4.5362126141
 H         -3.2784907468       -6.2468080538        4.4469384802
 H         -2.9538134635       -5.0840683441        2.3182723199
 H         -1.3025349359       -5.6852256047       -0.1445969158
 H          0.1022334954       -3.6399001877       -0.1424948809
 H          3.0757074031        1.8707658698       -0.1992456126
 H          5.5506891635        1.6910445278       -0.1930830196
 H          5.8097041981       -1.0304874308       -2.3056102297
 H          6.9248670130       -1.6513866092       -4.3927551436
 H          9.3974431233       -1.8498723256       -4.4583654978
 H         10.7012443189       -1.4070999286       -2.4440518716
 H         11.4486184510        0.2534397266       -1.1543489221
 H         10.2270022619        1.3713302221       -0.5460031678
 H         11.4509690469        0.7183215395        0.5443155960
 H         11.3491629975       -1.7752364437        1.2053647102
 H         10.0360954021       -2.7793201038        0.5892047288
 H         11.3221328654       -2.2411503113       -0.4922892234
 H         10.7394591145       -0.0756227367        2.4966957442
 H          9.4624366265        0.4848086675        4.4986470914
 H          6.9831837389        0.5292062400        4.4051247725
 H          5.8367652640        0.0353896231        2.3007387389
 H          5.2319780669       -2.5559265589        0.1673075803
 H          2.7582550028       -2.3659781567        0.1520733185
 H         -3.1737903072        1.6952933768       -0.1810766241
 H         -4.2490461197        3.9314091245       -0.1685764541
 H         -2.1154846883        5.4636063908       -2.3202243319
 H         -2.1958012989        6.7092019866       -4.4252416325
 H         -3.2163503345        8.9699495243       -4.4818526297
 H         -4.1472941705        9.9298045612       -2.4413910898
 H         -3.9513441207       10.7202020337        1.2036099359
 H         -2.4781331519       10.0298471354        0.5214452904
 H         -3.6100899369       10.9008776618       -0.5145112424
 H         -6.2781162953        8.2337404616       -0.4195277336
 H         -6.2287429257        9.6366517778        0.6491231236
 H         -5.8933488937        9.8283104830       -1.0687718993
 H         -5.1252222919        9.3935303494        2.5548925840
 H         -4.9398408732        8.0222841399        4.5636857931
 H         -3.8123502277        5.8148669226        4.4484546396
 H         -2.9091968441        5.0206052269        2.3176642845
 H         -0.4027606387        5.7682412633        0.1513089457
 H          0.6626180879        3.5280783889        0.1314564559
 H         -3.3993586728       -1.2235230220        0.1323174159
 H         -4.8127464482       -3.2627314380        0.1365334177
 H         -3.6044312470       -4.6129759565       -2.3376669309
 H         -4.5991148664       -5.2905946787       -4.4683801838
 H         -6.0991611357       -7.2651296892       -4.5563855755
 H         -6.5595331487       -8.5278904188       -2.5205187529
