  51
 
 C         -4.5202900641        0.4671588857       -2.7469662078
 C         -3.2979367348        0.0748624709       -3.2724935660
 C         -2.2032910284       -0.1383581686       -2.4448152472
 C         -2.3584749550        0.0499083884       -1.0885446709
 C         -3.5924167130        0.4460744549       -0.5517207221
 C         -4.6803296935        0.6573475772       -1.3833753929
 C         -3.4514324855        0.5595891168        0.8919801362
 C         -4.3629918877        0.9115779731        1.8743178574
 C         -3.9412010713        0.9336739833        3.1944334044
 C         -2.6345034288        0.6111384214        3.5297612390
 C         -1.7154247370        0.2576577594        2.5503240819
 C         -2.1312935663        0.2340652650        1.2368651633
 C         -1.3309471781       -0.1179773349        0.0044436876
 C         -0.7334156217       -1.4990106879        0.0465088855
 C         -1.4051784479       -2.6988547802        0.1260715881
 C         -0.6723521098       -3.8761828057        0.0720149614
 C          0.7029510183       -3.8330846527       -0.0924774055
 C          1.3786391383       -2.6250370321       -0.1655535730
 C          0.6664361662       -1.4391857429       -0.0606800146
 C          1.0670221671       -0.0368538794       -0.1298796876
 C         -0.1018844205        0.7397802288       -0.1669897852
 C         -0.1010592382        2.1120830530       -0.3495316503
 C          1.1024018941        2.7717855083       -0.5115920398
 C          2.2711366417        2.0295436461       -0.4208172269
 N          3.5557684423        2.4977936238       -0.5097337635
 C          4.4293874011        1.4702603159       -0.2830831107
 C          5.8150670437        1.5088193215       -0.2340856743
 C          6.4827553296        0.3411806582        0.0757066079
 C          5.7782825654       -0.8272898636        0.3562919693
 C          4.3992331979       -0.8677006119        0.2999592567
 C          3.6941055249        0.2789675668       -0.0559209199
 C          2.2994480426        0.6266877405       -0.1864388538
 H         -5.3581538776        0.6267750087       -3.4105628344
 H         -3.1961158724       -0.0681975534       -4.3385831418
 H         -1.2513344658       -0.4451982059       -2.8541360084
 H         -5.6344062259        0.9623544669       -0.9791158836
 H         -5.3818035187        1.1631712016        1.6185069912
 H         -4.6387459310        1.2055703666        3.9737380876
 H         -2.3275491477        0.6347588579        4.5653983761
 H         -0.6974720323        0.0068489336        2.8122537872
 H         -2.4821414801       -2.7195252860        0.2146192651
 H         -1.1785394663       -4.8285335253        0.1340548333
 H          1.2593685942       -4.7562682912       -0.1712756818
 H          2.4411462739       -2.6218300060       -0.3384279850
 H         -1.0349968970        2.6536740244       -0.3795353208
 H          1.1386348906        3.8361809811       -0.6886190758
 H          3.8122343107        3.4584972591       -0.6621436674
 H          6.3493814368        2.4288092965       -0.4207434958
 H          7.5619360864        0.3370225343        0.1222964380
 H          6.3238901120       -1.7183459119        0.6311795391
 H          3.8864570188       -1.7761825499        0.5671174507
