171

C    -12.515803   -6.714217   -0.215942
C    -10.993864   -6.687087    0.053241
C    -10.328054   -7.570131   -1.027543
C    -10.762777   -7.321998    1.441330
C    -10.381799   -5.275008    0.020393
C     -9.003288   -5.099638    0.205968
C     -8.393353   -3.836081    0.175776
C     -9.191026   -2.701181   -0.065055
C    -10.571829   -2.826448   -0.203058
C    -11.157700   -4.116718   -0.174427
C    -11.118808   -1.516331   -0.339901
C    -12.442958   -1.035810   -0.504752
C    -12.721071    0.338317   -0.638124
C    -14.153998    0.876227   -0.806433
C    -14.225849    1.898682   -1.963870
C    -15.196893   -0.222557   -1.121063
C    -14.583549    1.565937    0.506161
C    -11.631142    1.216268   -0.591859
C    -10.309227    0.771061   -0.444143
C    -10.063727   -0.605887   -0.287984
N     -8.879652   -1.340990   -0.142918
C     -7.561752   -0.788558   -0.087768
C     -7.318667    0.371746    0.653101
C     -6.040375    0.935711    0.672868
C     -4.980123    0.359147   -0.049143
N     -3.683742    0.984491   -0.023492
C     -3.167575    1.682615   -1.177954
C     -3.625526    1.409135   -2.483398
C     -3.106744    2.066133   -3.600991
C     -2.130386    3.034857   -3.441261
C     -1.682017    3.352188   -2.163752
C     -2.180724    2.683901   -1.019014
C     -1.780117    3.140610    0.396733
C     -2.573969    4.430030    0.757358
C     -3.949465    4.589894    0.890571
C     -4.450084    5.852253    1.209493
C     -3.583998    6.939351    1.387022
C     -2.202569    6.779625    1.249087
C     -1.703550    5.523859    0.934856
C     -0.337846    5.089793    0.743842
C      0.833311    5.828750    0.839708
C      2.027427    5.147819    0.659387
C      2.052287    3.750040    0.383884
C      0.878394    3.005798    0.260452
C     -0.320150    3.695719    0.444968
C      3.528642    3.250601    0.308997
C      4.288079    4.589993    0.528387
C      5.661353    4.805116    0.574144
C      6.124984    6.093545    0.838397
C      5.223969    7.147112    1.051520
C      3.845011    6.930033    0.996641
C      3.382269    5.649338    0.738490
C      3.870739    2.673486   -1.070256
C      3.353302    3.255130   -2.253142
C      3.697120    2.773353   -3.515159
C      4.575014    1.706828   -3.623360
C      5.116950    1.136556   -2.471120
C      4.788173    1.609632   -1.179685
N      5.375732    1.018094   -0.003163
C      6.593685    0.265793   -0.127873
C      7.801272    0.936753   -0.367787
C      9.001567    0.228530   -0.487675
C      9.038994   -1.172285   -0.356442
C     10.312011   -1.908477   -0.457074
N     10.441013   -3.025092    0.254932
C     11.637070   -3.613140    0.172236
C     11.866728   -4.824868    0.991120
C     13.121401   -5.466149    1.027589
C     13.346813   -6.595034    1.824953
C     12.317617   -7.116144    2.602733
C     11.063464   -6.511752    2.579691
C     10.843161   -5.381054    1.783692
N     12.647565   -3.175751   -0.587635
C     12.403775   -2.074287   -1.297401
C     13.471982   -1.528356   -2.230276
C     14.187232   -0.312033   -1.619701
C     15.259181   -0.694365   -0.601580
C     16.272362   -1.660950   -1.200695
C     15.595944   -2.911557   -1.749207
C     14.477995   -2.577783   -2.738881
N     11.258316   -1.391203   -1.245038
C      7.817728   -1.835280   -0.126338
C      6.608929   -1.130428   -0.028692
C      4.809707    1.271348    1.298631
C      5.194865    0.526997    2.434122
C      4.645250    0.762377    3.698613
C      3.710028    1.767216    3.866330
C      3.328179    2.534378    2.769590
C      3.860773    2.300752    1.475645
C     -2.015107    2.059662    1.462413
C     -1.370988    2.112246    2.720053
C     -1.608679    1.148471    3.698142
C     -2.509929    0.123443    3.450928
C     -3.182424    0.076245    2.231114
C     -2.961005    1.042979    1.225198
C     -5.218673   -0.831941   -0.746620
C     -6.502518   -1.396252   -0.776973
H    -12.760767   -6.286438   -1.196053
H    -13.070860   -6.156710    0.548571
H    -12.900723   -7.740721   -0.206106
H     -9.259409   -7.715746   -0.840228
H    -10.785972   -8.566398   -1.060973
H    -10.430401   -7.122320   -2.023349
H    -11.219113   -8.316910    1.502234
H     -9.698311   -7.443552    1.670195
H    -11.201920   -6.704630    2.234962
H     -8.362704   -5.961742    0.386898
H     -7.325348   -3.758089    0.358885
H    -12.233788   -4.175631   -0.295563
H    -13.238816   -1.773509   -0.525445
H    -15.256288    2.240849   -2.127037
H    -13.867892    1.457775   -2.904270
H    -13.629248    2.795946   -1.767313
H    -15.298555   -0.937674   -0.296201
H    -16.191822    0.208319   -1.289782
H    -14.926223   -0.780781   -2.022722
H    -14.580699    0.857255    1.341634
H    -15.593833    1.979812    0.422280
H    -13.914655    2.390184    0.773599
H    -11.786932    2.290184   -0.679027
H     -9.504390    1.498520   -0.464398
H     -8.097188    0.836336    1.252704
H     -5.868512    1.832850    1.263150
H     -4.393755    0.668803   -2.667680
H     -3.471919    1.818098   -4.593907
H     -1.732879    3.558614   -4.306022
H     -0.950431    4.151666   -2.068462
H     -4.624573    3.756152    0.738510
H     -5.522206    5.993414    1.319721
H     -3.992802    7.916369    1.631108
H     -1.544463    7.630267    1.387580
H      0.814742    6.887410    1.066778
H      0.897288    1.941340    0.053093
H      6.360011    3.987108    0.422951
H      7.194744    6.280665    0.889034
H      5.604475    8.140838    1.267113
H      3.160090    7.753722    1.164083
H      2.678432    4.107933   -2.199534
H      3.282485    3.236067   -4.406085
H      4.847103    1.318981   -4.602354
H      5.800498    0.299720   -2.598941
H      7.811443    2.020802   -0.457199
H      9.920626    0.781726   -0.667696
H     13.948368   -5.079616    0.435477
H     14.328176   -7.063592    1.836136
H     12.494770   -7.987131    3.231897
H     10.254828   -6.914112    3.186321
H      9.853516   -4.926487    1.793913
H     12.924256   -1.171970   -3.114858
H     14.670284    0.247116   -2.433433
H     13.469522    0.373388   -1.155623
H     15.776128    0.212220   -0.264653
H     14.792667   -1.141901    0.283672
H     17.006096   -1.945312   -0.437509
H     16.825800   -1.163094   -2.006384
H     15.201420   -3.503328   -0.916055
H     16.343132   -3.543248   -2.245836
H     13.961472   -3.497593   -3.038469
H     14.947999   -2.181070   -3.649908
H      7.799704   -2.918900   -0.030577
H      5.680633   -1.670294    0.133534
H      5.935667   -0.262487    2.364600
H      4.962249    0.163804    4.548141
H      3.290241    1.969642    4.848308
H      2.624343    3.347657    2.942064
H     -0.673319    2.914035    2.952406
H     -1.090652    1.203573    4.651500
H     -2.696677   -0.635703    4.205481
H     -3.877433   -0.743169    2.065978
H     -4.407029   -1.317619   -1.285170
H     -6.662993   -2.284825   -1.384578
