79

C      7.809628   -2.456332   -3.120684
C      7.082051   -2.972226   -2.050985
C      6.492597   -2.108263   -1.124164
C      6.621997   -0.713566   -1.250198
N      6.014025    0.178791   -0.291529
C      6.728973    1.349289    0.160510
C      8.108205    1.296276    0.429958
C      8.799966    2.428774    0.867838
C      8.124691    3.634235    1.043021
C      6.758765    3.709004    0.781640
C      6.066797    2.576264    0.344628
C      4.691290   -0.098930    0.214037
C      3.677315   -0.573697   -0.632329
C      2.393207   -0.840550   -0.141804
C      2.078831   -0.645852    1.211418
C      0.729160   -0.929023    1.727177
C      0.540008   -1.763944    2.840444
C     -0.738535   -2.023160    3.338513
C     -1.854588   -1.457666    2.724094
C     -1.701276   -0.641614    1.597831
C     -2.853797   -0.025061    0.933815
N     -3.023316    1.279534    0.880387
C     -4.230779    1.489820    0.263949
C     -4.891144    2.716172    0.022268
C     -4.297098    3.894855    0.522049
C     -4.912775    5.127635    0.338273
C     -6.119698    5.191742   -0.343833
C     -6.706570    4.024022   -0.848721
C     -6.113125    2.743751   -0.689253
C     -6.640754    1.518765   -1.215696
C     -7.822639    1.463510   -1.995876
C     -8.294705    0.277602   -2.564608
C     -7.588935   -0.899857   -2.388535
C     -6.429512   -0.898160   -1.617527
C     -5.963411    0.282564   -0.990392
C     -4.796737    0.290931   -0.161961
N     -3.949864   -0.686369    0.374409
C     -4.194745   -2.084532    0.453430
C     -3.197923   -2.999807    0.095787
C     -3.443598   -4.368784    0.211813
C     -4.673463   -4.823045    0.688663
C     -5.663605   -3.911021    1.053145
C     -5.427898   -2.540399    0.939977
C     -0.409417   -0.369312    1.121927
C      3.092795   -0.171883    2.056995
C      4.376636    0.098112    1.567570
C      7.361013   -0.214022   -2.337294
C      7.949222   -1.077937   -3.264898
H      8.267929   -3.128192   -3.841766
H      6.974716   -4.047102   -1.932676
H      5.943938   -2.532463   -0.286511
H      8.651467    0.361031    0.316603
H      9.865042    2.365657    1.074590
H      8.662591    4.515295    1.382889
H      6.228917    4.648878    0.913380
H      5.004167    2.662012    0.129383
H      3.874628   -0.723345   -1.691390
H      1.638047   -1.210235   -0.832384
H      1.396849   -2.222947    3.330339
H     -0.863164   -2.663360    4.208059
H     -2.842326   -1.655914    3.133999
H     -3.353180    3.845078    1.062969
H     -4.452145    6.030647    0.728884
H     -6.609702    6.150946   -0.491152
H     -7.647099    4.140987   -1.379233
H     -8.401892    2.360658   -2.195984
H     -9.201400    0.286652   -3.163897
H     -7.931064   -1.819428   -2.855731
H     -5.884096   -1.833393   -1.548664
H     -2.237243   -2.671830   -0.294307
H     -2.673805   -5.082983   -0.070984
H     -4.859178   -5.890618    0.778976
H     -6.618356   -4.268124    1.431669
H     -6.204014   -1.843863    1.251594
H     -0.292935    0.304919    0.273700
H      2.888735    0.004145    3.111323
H      5.136807    0.452555    2.259934
H      7.467689    0.859168   -2.478238
H      8.512810   -0.671467   -4.100649
