  72
 
 N         -0.0193387932       -0.9355359119        0.0322715733
 C         -0.0211848726        0.1808652464       -0.2303456870
 C         -0.0255538994        1.5436415007       -0.6146704814
 C         -1.2438022240        2.2095429963       -0.8295513072
 C         -2.5329544653        1.5759273255       -0.5414414478
 C         -3.5831637010        1.6729861975       -1.4529386706
 C         -4.7958207239        1.0682929520       -1.1965951228
 C         -4.9924007594        0.3677337896       -0.0079079204
 N         -6.2172178058       -0.2494806953        0.2549548180
 C         -7.4643909015        0.3340096372        0.1305793977
 C         -7.8026317661        1.6343179671       -0.2148253484
 C         -9.1432934960        1.9695244791       -0.2332060571
 C        -10.1296871435        1.0418945955        0.0927822466
 C         -9.7976042240       -0.2458714546        0.4636554905
 C         -8.4570300197       -0.6061808660        0.4891387229
 C         -7.7671059408       -1.8168389089        0.8387826379
 C         -8.1937377908       -3.0741496910        1.2454246963
 C         -7.2455127884       -4.0491910363        1.4820803817
 C         -5.8892935228       -3.7879197261        1.3014318561
 C         -5.4404600074       -2.5447681500        0.8975350325
 C         -6.3873586608       -1.5534155875        0.6849366061
 C         -3.9531816114        0.2879168356        0.9169958513
 C         -2.7369509149        0.8793745492        0.6484035809
 C         -1.1733211703        3.5065579331       -1.3380852318
 N         -0.0428930059        4.1272803487       -1.6135621322
 C          1.0960694786        3.5005644712       -1.3918224646
 C          1.1842906107        2.2025782655       -0.8882171645
 C          2.4850734973        1.5647813651       -0.6646632512
 C          2.7517336831        0.8750815410        0.5163983060
 C          3.9803241686        0.2828078542        0.7229280737
 C          4.9735043545        0.3700585881       -0.2499608827
 N          6.2184449341       -0.2311313294       -0.0459399291
 C          6.8743738184       -1.0554483507       -0.9416695815
 C          6.4600832615       -1.5223074755       -2.1805887588
 C          7.3079608591       -2.3711001540       -2.8664465805
 C          8.5359986878       -2.7585306168       -2.3354197299
 C          8.9413315191       -2.3188227234       -1.0911760605
 C          8.1060926409       -1.4651472110       -0.3828921661
 C          8.1933732765       -0.8488995820        0.9117191135
 C          9.1594568904       -0.8580957490        1.9089459773
 C          8.9364259803       -0.1179494023        3.0527525998
 C          7.7757022225        0.6374808346        3.2012249304
 C          6.8001547973        0.6623310841        2.2226681519
 C          7.0065632124       -0.1005238440        1.0824761555
 C          4.7150944120        1.0660216705       -1.4293422568
 C          3.4854033609        1.6570523844       -1.6309094888
 H         -3.4325249004        2.1961091929       -2.3858910032
 H         -5.5912828446        1.1153767593       -1.9247456393
 H         -7.0460895879        2.3679744082       -0.4493365743
 H         -9.4317210191        2.9748836179       -0.5026134942
 H        -11.1665405002        1.3419450619        0.0636496832
 H        -10.5604019932       -0.9601989789        0.7341974762
 H         -9.2462496158       -3.2810170556        1.3671272371
 H         -7.5554475870       -5.0330070034        1.8015093777
 H         -5.1713063621       -4.5752861428        1.4765589110
 H         -4.3883571608       -2.3610016219        0.7408135067
 H         -4.1109032262       -0.2269538263        1.8522272468
 H         -1.9465012388        0.8240076831        1.3821522659
 H         -2.0774736819        4.0723646917       -1.5185986666
 H          1.9935579005        4.0620364751       -1.6143331850
 H          1.9953686222        0.8092806347        1.2844391297
 H          4.1706952289       -0.2670864126        1.6317671048
 H          5.5012101714       -1.2462764792       -2.5927111154
 H          7.0089623502       -2.7458213928       -3.8342270584
 H          9.1713533671       -3.4209860620       -2.9041202316
 H          9.8844587336       -2.6334547677       -0.6706355763
 H         10.0666256850       -1.4299891560        1.7852305101
 H          9.6735279803       -0.1133887934        3.8418020442
 H          7.6360539984        1.2203158615        4.0997285240
 H          5.9136746747        1.2671360287        2.3407969253
 H          5.4887236639        1.1521553755       -2.1772843547
 H          3.2890258847        2.1835629555       -2.5534085218
