  58
 
 N          6.3304024873        0.2899875834       -4.3705328228
 C          6.5391756220        0.2072333799       -3.2449562919
 C          6.8731184112        0.1039307318       -1.8775684722
 C          8.2711884681        0.0681796826       -1.6893827967
 N          9.4154459832        0.0440208670       -1.6027796106
 C          5.9565138983        0.0441660592       -0.8658289103
 C          6.2399129164       -0.0682883091        0.5643216260
 C          7.4372687734       -0.1339869991        1.2556901147
 C          7.4000539242       -0.2414597831        2.6406700462
 C          6.1957564759       -0.2828495137        3.3230750480
 C          4.9872544415       -0.2165972331        2.6389735226
 C          5.0138133133       -0.1093397352        1.2645104480
 C          3.9324133098       -0.0187815979        0.2915882275
 C          2.5684867708       -0.0157487535        0.4640581189
 C          1.7355486501        0.0733001233       -0.6594442608
 C          0.2802018455        0.0656138967       -0.5003342036
 C         -0.3293840458        0.7231792214        0.5693265832
 C         -1.6979619478        0.7163981508        0.7238390341
 C         -2.5121250023        0.0380652489       -0.1867559287
 N         -3.8948163812        0.0197560343       -0.0295122800
 C         -4.6346860220       -1.1108890426       -0.4041003658
 C         -4.1357100902       -2.3920454509       -0.1724358386
 C         -4.8718846445       -3.5013532385       -0.5407168478
 C         -6.1146819830       -3.3532115954       -1.1344521476
 C         -6.6167336623       -2.0822788963       -1.3615921150
 C         -5.8845563585       -0.9665939088       -1.0044587709
 C         -4.5614990305        1.1285009217        0.5106876451
 C         -4.1637313813        2.4233911299        0.1804083525
 C         -4.8266743860        3.5111842279        0.7146618080
 C         -5.8967925412        3.3276135538        1.5750405010
 C         -6.2992066088        2.0428555342        1.9011960943
 C         -5.6375102210        0.9485679216        1.3786790090
 C         -1.9069447921       -0.6236426668       -1.2584067647
 C         -0.5385142408       -0.6040140027       -1.4112642189
 C          2.3123497867        0.1642976955       -1.9277165093
 C          3.6851561785        0.1682314082       -2.1091557420
 C          4.5076834427        0.0735691794       -0.9969298292
 H          8.3856963320       -0.1029249321        0.7439443823
 H          8.3277132201       -0.2935921240        3.1902032098
 H          6.1947490304       -0.3679601947        4.3996947993
 H          4.0503355941       -0.2494906387        3.1744288304
 H          2.1388695771       -0.1076211674        1.4501971176
 H          0.2775923289        1.2655259494        1.2792864607
 H         -2.1498512111        1.2320160167        1.5583832162
 H         -3.1718798037       -2.5095302396        0.3011378849
 H         -4.4757000924       -4.4885962591       -0.3540336026
 H         -6.6883459516       -4.2225453647       -1.4173556025
 H         -7.5828980683       -1.9575861716       -1.8277273936
 H         -6.2736418549        0.0239817824       -1.1893583749
 H         -3.3371394517        2.5682757165       -0.4998480753
 H         -4.5107778970        4.5093372635        0.4494560065
 H         -6.4143087025        4.1801522618        1.9876426929
 H         -7.1301292700        1.8905571108        2.5740504680
 H         -5.9473537686       -0.0527064999        1.6400326982
 H         -2.5226379536       -1.1488052929       -1.9735816729
 H         -0.0930219329       -1.1339721240       -2.2399329343
 H          1.6709201115        0.2569269132       -2.7910094306
 H          4.0934794046        0.2476001699       -3.1040151315
