99
 xtb: 6.7.1 (edcfbbe)
C           -7.88018729351630        0.03191908287955        1.74018749624757
C           -6.46219123793392        0.18971929841641        1.28517116297796
C           -5.60170355781711        1.05701535439602        1.94533765305607
C           -4.28284710779466        1.20982204387717        1.55653382370518
C           -3.42824417250906        2.19010793711571        2.30575562199906
C           -3.76882942977869        0.49337251753280        0.45595518090048
B           -2.27979521458994        0.72222704186404        0.01395311236815
C           -2.00543913164407        1.18143706712688       -1.47497495866751
C           -3.01894505890345        1.89950437822425       -2.12215833236127
C           -2.85748271708332        2.46924898511030       -3.37014010668364
C           -1.64486285915686        2.31379325256885       -4.02618902054230
C           -1.40316186009091        2.91207615373863       -5.38011888354042
F           -0.37730350126675        3.78335220918354       -5.37292093558038
F           -2.46003667519844        3.57783889278610       -5.86817498180341
F           -1.08750873368028        1.98026721656157       -6.30286122961775
C           -0.61912488084955        1.59366727461442       -3.43498022190867
C           -0.78754622505932        1.03439649479179       -2.17154479817742
N            0.31702108447855        0.37071138115832       -1.62261399933280
C            0.38311148906557       -0.92603039095984       -1.15673316416015
C           -0.52664357988139       -1.96197852542150       -1.27518534226901
C           -0.18241699347588       -3.19173463501384       -0.75176269824965
C            1.04343230534362       -3.43230505705062       -0.11866869190112
C            1.31852792213556       -4.81804362375171        0.44738932661836
C            1.25990153895984       -5.85002457145533       -0.68764843341681
C            2.69490671155426       -4.91997663810496        1.11059325229936
C            0.25754526111899       -5.14909757670463        1.50635323446242
C            1.96506768570393       -2.40086711081566       -0.05133997469857
C            1.64707320968498       -1.15702071551521       -0.57765773528723
C            2.38479455411347        0.06737279063940       -0.70873550700687
C            3.65455017342204        0.45363617775851       -0.30249834176742
C            4.09878252500884        1.73849619054688       -0.56577298355849
C            5.46742623627606        2.23982623365438       -0.12770826240789
C            6.26492268587501        2.68617028884368       -1.36110787773668
C            6.28194247030069        1.16610506310953        0.59956694877380
C            5.28139471458386        3.42647416106142        0.82911602768513
C            3.24718631966001        2.61283820322618       -1.25404330746208
C            1.97919392720129        2.25546711267425       -1.66665124475167
C            1.54053844494293        0.97231580134048       -1.38234522433209
C           -1.08122871333501        0.60698926385214        1.01464573000043
C           -0.89219699796256       -0.58218707470792        1.74700163071273
C           -1.94465593873919       -1.65179385377072        1.76662294654052
C            0.27171208216956       -0.77938903004420        2.46693105130689
C            1.26904420484740        0.18584880324985        2.52216396209507
C            2.53555868970676       -0.07184645764431        3.27825541193779
C            1.03559718735868        1.39594906606931        1.89479652082898
C           -0.11810894880441        1.61798609294629        1.15648227925356
C           -0.33452491739084        2.99951312734907        0.60908358938866
C           -4.64775917696575       -0.37175219714783       -0.21629043018669
C           -4.20289105579073       -1.22179543190460       -1.37101839021840
C           -5.96297902991171       -0.51667189072697        0.20599588193370
H           -8.37873548691683        1.00281311980567        1.79386031980269
H           -8.45077818564384       -0.59616881785756        1.03970700966626
H           -7.92104461888219       -0.42382336942529        2.71656068695107
H           -5.98532228110630        1.62260144918891        2.77967191310740
H           -4.00176592185104        2.64194454715894        3.11506431206025
H           -3.08501391289479        2.97237123737733        1.64288706976649
H           -2.56433615744601        1.68941281001062        2.72681066164866
H           -3.96335963274975        2.02551877155749       -1.61081629691664
H           -3.65634795905969        3.02888360211984       -3.82814083654460
H            0.32198815555561        1.46691531787476       -3.94656655054804
H           -1.47183756715163       -1.81479779497301       -1.75949038378194
H           -0.89317641671541       -3.99126376177273       -0.83032295381333
H            0.27982617599695       -5.87313359224905       -1.13547649071294
H            1.99191862477868       -5.59958059118016       -1.44713088504508
H            1.48876561381713       -6.83779867473949       -0.29232133012812
H            2.79552334084926       -4.20434021724735        1.93795261144008
H            2.84089493488982       -5.91349430748850        1.51957564088210
H            3.49666249266498       -4.72790864460997        0.39660626475405
H            0.31020298583204       -4.41491743096348        2.32771831022774
H           -0.73551173253513       -5.12525533684069        1.09985523403098
H            0.44679810801790       -6.13051047556564        1.93464257144165
H            2.94384483909111       -2.53237859692457        0.39356458801794
H            4.27920343328940       -0.26062727665733        0.20152601984041
H            7.25806263024143        3.03133008756077       -1.10045391685549
H            5.76502885349839        3.50844396108261       -1.90339776363661
H            6.37221759441472        1.86508710555343       -2.08785803341143
H            7.26928326804833        1.57355243998050        0.84279241921798
H            5.80441025789188        0.83003870924920        1.47260103616447
H            6.47078507024850        0.30829714505542       -0.08445625622673
H            4.72954665378734        3.11339107905649        1.68592713379291
H            4.77393897941386        4.24602531292261        0.33680812770983
H            6.27000191749038        3.78626388940170        1.14589869401692
H            3.58427196284085        3.61934096713173       -1.48037414292120
H            1.35153283008810        2.96981897336605       -2.18388649884246
H           -2.84920118679621       -1.29754346779729        2.28515494534007
H           -2.25485314147230       -1.93787032950356        0.75877457104689
H           -1.59909360201548       -2.54581199903293        2.27868377829352
H            0.39369848213865       -1.73069985056300        2.99684704838701
H            2.80677482857549       -1.14103068354701        3.22051109837994
H            2.39041574352910        0.16575654446488        4.34718610960849
H            3.33399342918371        0.53041352997013        2.88620559569542
H            1.76811218508637        2.16313304493169        1.97615079596603
H           -1.09036399285661        3.01164883220068       -0.15908077178481
H           -0.66059208197886        3.64472199978019        1.42826826807377
H            0.59806025673259        3.39147017666730        0.22687795528632
H           -3.84501248006336       -2.18206887997043       -1.01518434937634
H           -3.41060226045731       -0.74140820006278       -1.94089074823923
H           -5.04057388880661       -1.41378630176941       -2.05119981113288
H           -6.61794655683082       -1.19533900332804       -0.34005032917702
