99

C     -7.739297   -0.609177    1.794224
C     -6.368119   -0.265982    1.365301
C     -5.556554    0.518855    2.142455
C     -4.253670    0.866174    1.768552
C     -3.496197    1.708544    2.710630
C     -3.719319    0.410296    0.551383
B     -2.279029    0.786252    0.121377
C     -2.030981    1.382176   -1.321271
C     -2.990726    2.217611   -1.915941
C     -2.798705    2.747760   -3.176386
C     -1.642785    2.448348   -3.857973
C     -1.471732    3.036323   -5.205114
F     -0.093665    3.051048   -5.463897
F     -1.884174    4.353796   -5.250081
F     -2.043181    2.269366   -6.174083
C     -0.695071    1.629044   -3.280649
C     -0.870879    1.082053   -2.003267
N      0.190445    0.293074   -1.513987
C      0.322047   -1.021054   -1.314400
C     -0.518756   -2.084896   -1.525700
C     -0.143670   -3.376369   -1.241367
C      1.100336   -3.677226   -0.727569
C      1.536464   -5.060379   -0.408151
C      2.205368   -5.669008   -1.637383
C      2.551274   -5.079361    0.709801
C      0.329115   -5.885983   -0.048371
C      1.957861   -2.624432   -0.509516
C      1.573262   -1.331850   -0.797561
C      2.234593   -0.136860   -0.680879
C      3.514762    0.113778   -0.229587
C      3.990146    1.408600   -0.209453
C      5.358824    1.751219    0.266121
C      6.327737    1.668561   -0.908998
C      5.795203    0.707858    1.270721
C      5.423431    3.146101    0.849835
C      3.163421    2.422768   -0.645323
C      1.873287    2.138947   -1.096340
C      1.377355    0.847266   -1.123774
C     -1.103600    1.049513    1.110182
C     -0.511740    0.022162    1.848635
C     -1.011169   -1.373877    1.751164
C      0.541282    0.259898    2.706032
C      1.016405    1.548541    2.832665
C      2.157632    1.796285    3.763969
C      0.429055    2.558601    2.102865
C     -0.634599    2.337045    1.232271
C     -1.164403    3.510020    0.518404
C     -4.541203   -0.380434   -0.227073
C     -4.150987   -0.965007   -1.531097
C     -5.849145   -0.712895    0.177099
H     -8.227234    0.253123    2.335805
H     -8.411690   -0.775281    0.912546
H     -7.752099   -1.514594    2.437239
H     -5.988163    0.863814    3.084211
H     -4.180038    1.909810    3.599959
H     -3.265331    2.721037    2.364463
H     -2.646495    1.182612    3.212122
H     -3.870406    2.414526   -1.336490
H     -3.581510    3.382318   -3.568476
H      0.199096    1.426633   -3.866386
H     -1.486934   -1.897540   -1.932978
H     -0.833100   -4.201161   -1.419219
H      1.487560   -5.628314   -2.500805
H      3.088779   -5.074469   -1.923915
H      2.461658   -6.726070   -1.463660
H      2.329742   -4.279490    1.435024
H      2.459398   -6.047734    1.246907
H      3.586679   -4.968822    0.290570
H     -0.394025   -5.331781    0.566616
H     -0.152636   -6.173292   -1.015120
H      0.657187   -6.830036    0.434470
H      2.934453   -2.862352   -0.106412
H      4.152100   -0.692034    0.108747
H      7.357316    1.607590   -0.523227
H      6.136443    2.482041   -1.612441
H      6.059674    0.717718   -1.441118
H      6.759107    1.096650    1.707089
H      5.024802    0.530657    2.047884
H      6.064358   -0.197207    0.715030
H      4.482742    3.483124    1.314182
H      5.689024    3.836416    0.003600
H      6.298137    3.199354    1.551912
H      3.521336    3.459523   -0.638039
H      1.306125    2.989106   -1.430734
H     -1.358484   -1.776156    2.720745
H     -1.826067   -1.486759    1.016530
H     -0.134248   -1.996469    1.443468
H      1.011635   -0.539522    3.288529
H      1.968163    1.319227    4.767812
H      2.242643    2.871487    3.936131
H      3.076034    1.306740    3.383481
H      0.830941    3.553850    2.231496
H     -2.256452    3.562404    0.507745
H     -0.831575    4.471890    0.986183
H     -0.723724    3.540855   -0.496545
H     -3.820426   -2.020855   -1.278498
H     -3.320240   -0.520016   -2.045195
H     -5.040619   -1.143723   -2.184257
H     -6.489588   -1.331919   -0.435475
