  40
 
 C          5.8736736005       -1.3856346827        0.3836746454
 C          4.6904255841       -0.5326707702        0.0761442330
 C          3.4075800477       -0.8753378369        0.3075940835
 C          2.3624937109        0.0426368153       -0.0321457035
 N          1.0981008723       -0.2933234523        0.2070584063
 C          0.1247702828        0.5578244544       -0.0962194745
 N         -1.1607921112        0.1630408942        0.1551043606
 C         -2.2414964558        1.0729556342        0.1372997425
 C         -2.1697245883        2.3250034528        0.7361959857
 C         -3.2461860045        3.1922669461        0.6680226294
 C         -4.4086359466        2.8115546785        0.0181892140
 C         -4.5169050630        1.5430998389       -0.5242233669
 C         -3.4420828273        0.6690406189       -0.4519100193
 O         -3.5921346290       -0.6010418066       -0.9440497638
 C         -2.7685087245       -1.5453546796       -0.3734786706
 C         -3.1891762299       -2.8655578784       -0.3987169169
 C         -2.4125656346       -3.8470051113        0.1924888051
 C         -1.2374112607       -3.5008858584        0.8349919906
 C         -0.8123499794       -2.1823423901        0.8639802192
 C         -1.5562441490       -1.1962860363        0.2323811905
 C          0.3922449673        1.8098382993       -0.7115694348
 C          1.6893003426        2.1595230661       -0.9614225068
 C          2.7241220843        1.2778086005       -0.6035105041
 C          4.1127177804        1.6022353070       -0.8341612672
 O          4.5286327586        2.6378582046       -1.3197585847
 O          5.0351165824        0.6595003561       -0.4727518569
 H          6.4509769694       -1.5543647070       -0.5238175983
 H          6.5220986108       -0.8719315016        1.0917633897
 H          5.5576710449       -2.3356937633        0.7997161123
 H          3.1495736699       -1.8246962962        0.7415165224
 H         -1.2642432388        2.6155339240        1.2470335121
 H         -3.1721169886        4.1670729300        1.1241323772
 H         -5.2415927886        3.4935735640       -0.0485106291
 H         -5.4220889658        1.2099318810       -1.0064072585
 H         -4.1210964945       -3.0992251593       -0.8889296638
 H         -2.7374674228       -4.8753390480        0.1612680496
 H         -0.6403845745       -4.2587791978        1.3177556314
 H          0.1069880627       -1.9108637680        1.3510331477
 H         -0.4172503780        2.4533366036       -1.0140241905
 H          1.9439674843        3.0926988745       -1.4417368381
