  72
 
 C         -2.1228879395       -5.6823200131       -1.9496234235
 C         -2.4328377332       -4.3529334196       -2.2371891354
 C         -1.7486731124       -3.3124123074       -1.6230036487
 C         -0.7552261032       -3.6296680777       -0.7142752226
 C         -0.4023399921       -4.9837800417       -0.4475471862
 C         -1.1108902426       -6.0108546790       -1.0666968187
 C          0.6985695583       -4.9496500789        0.4582607620
 C          1.4679467168       -5.9308236663        1.0792503893
 C          2.4580844901       -5.5400297724        1.9616049769
 C          2.6869318967       -4.1938054985        2.2468257559
 C          1.9410985015       -3.1977290654        1.6307609757
 C          0.9688759121       -3.5761988119        0.7225058873
 N          0.0823760522       -2.7925665940        0.0033069112
 C          0.0411760271       -1.4078334398        0.0016142064
 C         -1.1893461106       -0.7329859787        0.1567604850
 C         -1.2234099958        0.6439319658        0.1805412731
 N         -2.4264979118        1.3231025899        0.3911313697
 C         -3.6198248039        1.0970186904       -0.2672063367
 C         -3.8994278275        0.2374086095       -1.3168181530
 C         -5.1895639229        0.2240153546       -1.8211338239
 C         -6.1779953501        1.0534047413       -1.2962074379
 C         -5.8999263581        1.9353229857       -0.2685705571
 C         -4.6107339670        1.9691431088        0.2501742856
 C         -3.9749366780        2.7517527108        1.2684743945
 C         -4.4192334903        3.7485470536        2.1289372507
 C         -3.5250830463        4.2882588150        3.0350920788
 C         -2.2075208414        3.8414074869        3.1010810438
 C         -1.7408461971        2.8497568453        2.2532012541
 C         -2.6251090719        2.3216243869        1.3257096071
 C         -0.0413102116        1.3949313529       -0.0017801276
 C          1.1826138004        0.7146620805       -0.1824651762
 N          2.3437271806        1.4631164522       -0.3948680161
 C          3.5478433524        1.3102594459        0.2648060316
 C          3.8771212825        0.4721018361        1.3173762899
 C          5.1654318465        0.5367563088        1.8222928470
 C          6.1033728243        1.4215215268        1.2951928317
 C          5.7742967347        2.2819916961        0.2644540875
 C          4.4857699757        2.2376215435       -0.2550793642
 C          3.8055245781        2.9776375254       -1.2765889107
 C          4.1907471703        3.9958042644       -2.1404604150
 C          3.2668582332        4.4785183104       -3.0489205933
 C          1.9780406724        3.9543990192       -3.1137961581
 C          1.5702064885        2.9399731227       -2.2625862715
 C          2.4835968224        2.4682797006       -1.3328850701
 C          1.2300953403       -0.6617606384       -0.1554688172
 H         -2.6789042590       -6.4682291276       -2.4393536513
 H         -3.2104733254       -4.1284879375       -2.9505732718
 H         -1.9754843775       -2.2870233996       -1.8686960644
 H         -0.8662396794       -7.0419790282       -0.8625703451
 H          1.2862440008       -6.9752359955        0.8769503451
 H          3.0606011981       -6.2899532172        2.4527581984
 H          3.4494128926       -3.9214162043        2.9598721181
 H          2.1052328265       -2.1600407555        1.8746863487
 H         -2.0878016809       -1.3032314044        0.3338899353
 H         -3.1344528588       -0.3934774419       -1.7414687190
 H         -5.4313564018       -0.4400105567       -2.6371367373
 H         -7.1747751210        1.0113135519       -1.7095283225
 H         -6.6636906086        2.5898101379        0.1228610059
 H         -5.4430383951        4.0880030807        2.0901821596
 H         -3.8527661681        5.0631889632        3.7121011025
 H         -1.5375293334        4.2705893076        3.8306220394
 H         -0.7246741446        2.4930685722        2.3263608495
 H         -0.0731754202        2.4709578420       -0.0034378626
 H          3.1505442796       -0.2016231617        1.7436505375
 H          5.4455925100       -0.1091822747        2.6405429835
 H          7.1005915007        1.4399069612        1.7091829811
 H          6.4982330158        2.9792566916       -0.1287937388
 H          5.1927035468        4.3952418777       -2.1025144064
 H          3.5486088799        5.2690222371       -3.7285880180
 H          1.2843101199        4.3406987074       -3.8451174997
 H          0.5768884241        2.5236820166       -2.3347397504
 H          2.1605845655       -1.1784283852       -0.3315138184
