  90
 
 O          8.9404324963        3.3136042549        0.6114806686
 C          8.6540095129        2.1687027282        0.3659502091
 C          9.5824245453        1.0357281728        0.1068901277
 C         10.9637063828        1.0347000130        0.0900596198
 C         11.6188240243       -0.1613447451       -0.1788298434
 C         10.9042720984       -1.3245051293       -0.4239488670
 C          9.5141140154       -1.3321274859       -0.4089442236
 C          8.8594219442       -0.1459090022       -0.1424344879
 C          7.4374254460        0.1615833993       -0.0575729275
 N          6.4202885952       -0.6374198196       -0.2190359433
 C          5.2002168984       -0.0600575157       -0.0768687829
 C          4.0482319288       -0.8518179761       -0.2231302408
 C          2.8041335781       -0.2943561004       -0.0822904590
 C          1.5493930891       -1.0718888018       -0.1748862856
 C          0.9820742254       -1.3917892975       -1.4021581043
 C         -0.2872440567       -1.9295508832       -1.4689517641
 C         -1.0193211245       -2.1650052094       -0.3051285437
 N         -2.3447120438       -2.6033948078       -0.3797483931
 C         -2.8461574666       -3.4894502766        0.5799470662
 C         -4.1436129634       -3.3494812875        1.0720334699
 C         -4.6260300426       -4.2314390637        2.0194721732
 C         -3.8271425835       -5.2579047495        2.4962917440
 C         -2.5363372828       -5.3985613766        2.0133208151
 C         -2.0468547945       -4.5265885572        1.0604988144
 C         -3.1954813131       -2.0598129319       -1.3505919620
 C         -4.1938632557       -2.8409776365       -1.9313021363
 C         -5.0379019112       -2.2977512448       -2.8804286661
 C         -4.8965228224       -0.9767764730       -3.2729774825
 C         -3.8999667414       -0.1992653148       -2.7063674043
 C         -3.0579657250       -0.7305502862       -1.7493453468
 C         -0.4155838050       -1.9223173236        0.9292440517
 C          0.8473996897       -1.3732627870        0.9878141220
 C          2.6635167859        1.0942631594        0.1917651908
 C          1.2787607856        1.6104861811        0.2601142602
 C          0.5539614258        1.7734559978       -0.9160453275
 C         -0.7928340446        2.0654518344       -0.8824130469
 C         -1.4557666983        2.1822836626        0.3398158670
 N         -2.8422860879        2.3549590997        0.3884864084
 C         -3.4885100731        3.1287738934       -0.5817626515
 C         -4.7250683988        2.7401834311       -1.0966544641
 C         -5.3525098162        3.5129172630       -2.0544855382
 C         -4.7596755374        4.6756101536       -2.5191193218
 C         -3.5296785194        5.0636468817       -2.0133427040
 C         -2.8973052204        4.3020339552       -1.0500681543
 C         -3.5894501984        1.6577254992        1.3460671674
 C         -3.2064853499        0.3792355000        1.7507553495
 C         -3.9470591498       -0.3041112717        2.6950541731
 C         -5.0835598683        0.2676563486        3.2429210821
 C         -5.4690536983        1.5371078109        2.8441959040
 C         -4.7290350747        2.2324411558        1.9076488766
 C         -0.7142538367        2.0898334286        1.5177248701
 C          0.6364336191        1.8092540829        1.4759100896
 C          3.7723618916        1.8822100535        0.3520478384
 C          5.0592441206        1.3282367264        0.2269695094
 N          6.1381783826        2.1317660210        0.3897568659
 C          7.2951248755        1.5536914926        0.2490590928
 H         11.5106401527        1.9451383810        0.2822507520
 H         12.6982373923       -0.1857477956       -0.1971767629
 H         11.4375372005       -2.2409351030       -0.6302163250
 H          8.9539397017       -2.2341747480       -0.5988536058
 H          4.1700965856       -1.9029688122       -0.4358989642
 H          1.5305593607       -1.1930301727       -2.3113097322
 H         -0.7339045547       -2.1480463487       -2.4276784739
 H         -4.7641871567       -2.5411553418        0.7140935600
 H         -5.6312314965       -4.1086925359        2.3952837480
 H         -4.2072828795       -5.9429561885        3.2387720809
 H         -1.9075172808       -6.1986441227        2.3754516489
 H         -1.0428755818       -4.6427884061        0.6788644101
 H         -4.3006286748       -3.8740534454       -1.6342152988
 H         -5.8068822571       -2.9140669462       -3.3226950973
 H         -5.5565777927       -0.5565461483       -4.0164866334
 H         -3.7852886638        0.8333438220       -3.0027060758
 H         -2.2873592019       -0.1187846573       -1.3048894777
 H         -0.9549049403       -2.1354604894        1.8405246986
 H          1.2898201966       -1.1510364090        1.9477229611
 H          1.0495903761        1.6455759540       -1.8671612653
 H         -1.3455998221        2.1729208168       -1.8041877912
 H         -5.1833151737        1.8263432582       -0.7479332306
 H         -6.3079129246        3.1978725290       -2.4478520871
 H         -5.2522651693        5.2748755039       -3.2696729796
 H         -3.0618839472        5.9711821082       -2.3657023774
 H         -1.9421403782        4.6106202478       -0.6507429844
 H         -2.3253144770       -0.0729790995        1.3209856052
 H         -3.6414784648       -1.2957004869        2.9962418305
 H         -5.6630363184       -0.2714775071        3.9768426899
 H         -6.3491656503        1.9944097249        3.2720360228
 H         -5.0268839563        3.2259663309        1.6058859570
 H         -1.2129508270        2.2150165088        2.4674711691
 H          1.1956465071        1.7190441703        2.3956828719
 H          3.6878012640        2.9368095621        0.5648058023
