  138
 
 C          7.2627984461       -8.0328843808        2.4505099301
 C          6.9595818348       -7.6935567893        0.9841997549
 C          5.5542512559       -8.1899949873        0.6157882869
 C          7.9717074045       -8.4328733729        0.1048239848
 C          7.0155978668       -6.1851335284        0.8024065260
 C          6.1517210043       -5.3719519652        1.5327580364
 C          6.1626185024       -3.9990686195        1.3974967464
 C          7.0480534177       -3.3741012283        0.5230169701
 C          7.0597970744       -1.9124525947        0.3716935357
 C          8.2775774333       -1.2266237273        0.2645211674
 C          8.3379312079        0.1436154998        0.1149886904
 C          7.1425094763        0.8455083970        0.0574589435
 C          5.9044977130        0.1761213231        0.1868196095
 C          5.8674614555       -1.2004821481        0.3417493122
 C          4.8868260849        1.1891981740        0.1271960445
 C          3.5037054374        1.1450626117        0.1767643797
 C          2.7876732847        2.3328848441        0.0710920695
 C          1.3275345523        2.3566045182        0.1083218747
 C          0.5238970033        1.2434382407       -0.1692481665
 N         -0.7887503010        1.2938795519       -0.1408948221
 C         -1.3824538522        2.4560662889        0.1634332404
 C         -2.8439598158        2.4632393391        0.1809314807
 C         -3.5823848734        3.6479482255        0.3314886504
 C         -4.9609834894        3.6538373491        0.3308830162
 C         -5.6238489219        2.4444597654        0.1677618277
 C         -4.8977559915        1.2359602101        0.0389181124
 C         -3.5157783295        1.2499635413        0.0414674647
 C         -5.8740712658        0.1860283491       -0.0667814603
 C         -5.7778143102       -1.1865452766       -0.2290452935
 C         -6.9404148157       -1.9402816337       -0.3316534277
 C         -6.8661230283       -3.3976910494       -0.5050621900
 C         -5.9343674431       -4.1557996852        0.1956011901
 C         -5.8600282995       -5.5271007464        0.0333901232
 C         -6.7086942421       -6.1985926050       -0.8381928977
 C         -6.6601089701       -7.7031495457       -1.0516528025
 C         -5.5839008392       -8.3858216581       -0.2031516919
 C         -8.0203271202       -8.3069618116       -0.6744995849
 C         -6.3561625913       -7.9892184079       -2.5291702978
 C         -7.6385948374       -5.4341556670       -1.5394029116
 C         -7.7204527528       -4.0663591139       -1.3779683673
 C         -8.1863268112       -1.3004572925       -0.2791013142
 C         -8.3050170732        0.0642782212       -0.1128456323
 C         -7.1405075023        0.8086266482        0.0070046638
 N         -6.9729455976        2.1728859328        0.1491072413
 C         -8.0040514480        3.1193794556        0.2398609727
 C         -8.0091300955        4.2393586907       -0.5814267126
 C         -9.0268544130        5.1712639771       -0.4873249291
 C        -10.0725411806        5.0139630913        0.4145673632
 C        -11.2141473175        6.0097537779        0.5419239737
 C        -11.2432113680        6.5584687483        1.9755199126
 C        -12.5365719846        5.2942991685        0.2313642375
 C        -11.0747864075        7.1935781719       -0.4189128664
 C        -10.0544135370        3.8827345234        1.2280672775
 C         -9.0399011553        2.9504094536        1.1524844489
 C         -0.5768152866        3.5702512304        0.4327076924
 N          0.7373524610        3.5208633632        0.4033105030
 C          3.4737926166        3.5486064724       -0.0868669522
 C          4.8478317545        3.6116477988       -0.1443329746
 C          5.5603251384        2.4247558050       -0.0236963641
 N          6.9184833180        2.2023758170       -0.0668713652
 C          7.9068634608        3.1852541537       -0.2246201025
 C          8.8894149308        3.0481269557       -1.1964875903
 C          9.8632685547        4.0185000530       -1.3484995974
 C          9.8844173728        5.1554672211       -0.5494802138
 C         10.9322060097        6.2479427154       -0.6899614562
 C         10.2310532399        7.5734983597       -1.0191309548
 C         11.9447742189        5.9554397252       -1.8004821060
 C         11.6985286966        6.3791060197        0.6339438354
 C          8.8896136170        5.2788516134        0.4184647042
 C          7.9179931450        4.3137783989        0.5881526377
 C          7.9153745582       -4.1808523729       -0.2052122539
 C          7.8967356341       -5.5570275566       -0.0692096975
 H          8.2495621262       -7.6653673185        2.7249509830
 H          6.5344845892       -7.5838915014        3.1200678916
 H          7.2421468313       -9.1107593164        2.5981254445
 H          4.7965677826       -7.7454468070        1.2550102731
 H          5.3233559635       -7.9324075166       -0.4159187909
 H          5.4983256206       -9.2714037656        0.7227749281
 H          8.9899285754       -8.1354119854        0.3449424017
 H          7.7841975425       -8.2454715536       -0.9499915213
 H          7.8859900033       -9.5042706136        0.2757520240
 H          5.4520818710       -5.8132840030        2.2272140721
 H          5.4893387179       -3.3995243047        1.9932962102
 H          9.1976535587       -1.7889880844        0.3256073906
 H          9.2886703511        0.6521581154        0.0581945807
 H          4.9211463252       -1.7139822478        0.4201531918
 H          3.0026066225        0.1992960441        0.3123437031
 H          0.9450618197        0.2858451288       -0.4453210393
 H         -3.0682275255        4.5892970953        0.4453633103
 H         -5.5069538540        4.5760500300        0.4619842389
 H         -2.9448614299        0.3415165549       -0.0616808876
 H         -4.8095609899       -1.6576431492       -0.3020678602
 H         -5.2692195046       -3.6685296970        0.8941013576
 H         -5.1226082385       -6.0662149740        0.6059307468
 H         -5.7673595503       -8.2340624307        0.8580958178
 H         -4.5936773391       -8.0110006123       -0.4515800705
 H         -5.5955075380       -9.4568704038       -0.3960037577
 H         -8.8180025961       -7.9034736678       -1.2920089177
 H         -8.0009785662       -9.3869497809       -0.8060724996
 H         -8.2521313990       -8.0897400210        0.3662690783
 H         -5.4037289559       -7.5440581588       -2.8096391658
 H         -6.2996454955       -9.0624377166       -2.6996993441
 H         -7.1261182296       -7.5817743410       -3.1784374382
 H         -8.3166217514       -5.9101015295       -2.2325244242
 H         -8.4422581598       -3.5048200261       -1.9537598789
 H         -9.0822166611       -1.8989523736       -0.3546139304
 H         -9.2763163562        0.5350576546       -0.0870399113
 H         -7.2195715546        4.3723399406       -1.3062243386
 H         -8.9915786456        6.0250784838       -1.1437988713
 H        -10.2988842561        7.0447851711        2.2113210537
 H        -12.0428963437        7.2885423000        2.0802359769
 H        -11.4090226029        5.7670457834        2.7010036691
 H        -12.5143026901        4.8837180444       -0.7760539895
 H        -12.7204963152        4.4803083108        0.9269936086
 H        -13.3660904546        5.9947329239        0.3002540510
 H        -11.0785308053        6.8608446222       -1.4543000595
 H        -11.9149403534        7.8713111813       -0.2819411084
 H        -10.1606755922        7.7500189859       -0.2251454090
 H        -10.8434928324        3.7209133987        1.9466897730
 H         -9.0380753714        2.0932089667        1.8093352668
 H         -0.9903859015        4.5361352883        0.6888905553
 H          2.8850062400        4.4484394474       -0.1703520074
 H          5.3532656958        4.5543064589       -0.2904011377
 H          8.8811666399        2.1842748348       -1.8446500836
 H         10.6060618906        3.8722800114       -2.1153752882
 H          9.5458333019        7.8674800255       -0.2290370569
 H         10.9669265777        8.3651040763       -1.1429593123
 H          9.6655457923        7.4802381512       -1.9440242560
 H         11.4540925138        5.8789600621       -2.7680364547
 H         12.6670083535        6.7674890539       -1.8543568537
 H         12.4897716771        5.0354928737       -1.6018574667
 H         12.1795783999        5.4360288347        0.8851450693
 H         11.0364002694        6.6516596501        1.4509453902
 H         12.4656977631        7.1455818438        0.5476607382
 H          8.8690912132        6.1425538365        1.0655830780
 H          7.1707139348        4.4233756359        1.3599538908
 H          8.6018692424       -3.7281051133       -0.9065001768
 H          8.5862191390       -6.1346698345       -0.6635888933
