  79
 
 C          7.3407374538       -3.4654530728        1.4707406032
 C          6.5829305220       -2.5927100930        2.2348434225
 C          6.0744322395       -1.4354192630        1.6787101762
 C          6.3138613715       -1.1370843437        0.3368309395
 N          5.8008831392        0.0324445576       -0.2326490299
 C          6.5503857676        0.7321972975       -1.1846967731
 C          7.9358853909        0.8349992252       -1.0577939616
 C          8.6709663193        1.5246488428       -2.0019466529
 C          8.0413875724        2.1265299965       -3.0794619099
 C          6.6652092641        2.0301674942       -3.2082141504
 C          5.9215980538        1.3371136434       -2.2734182847
 C          4.5407273411        0.5041793091        0.1455347739
 C          3.5020551184       -0.3841904498        0.4298049972
 C          2.2606360102        0.0868935584        0.7970583522
 C          2.0065108959        1.4565814410        0.8930373367
 C          0.6784295599        1.9515829829        1.2682745195
 C          0.5425402458        3.1123108420        2.0542569826
 C         -0.7264254394        3.6087190923        2.3461807624
 C         -1.8517549393        2.9624265652        1.9109065709
 C         -1.7488427005        1.7464345561        1.1686333878
 C         -2.9404471244        1.1179492044        0.7784822444
 N         -4.1251835350        1.7658328433        0.7591239451
 C         -5.0020465276        0.9499005322        0.2121396964
 C         -6.3696560938        1.2204278580       -0.0899706990
 C         -6.9097541837        2.4861010165        0.1398034963
 C         -8.2214321762        2.7574468487       -0.1952711337
 C         -8.9907694669        1.7583546080       -0.7717332202
 C         -8.4650440190        0.4980545311       -0.9965429323
 C         -7.1456197447        0.1818087963       -0.6552326719
 C         -6.5748719227       -1.1442772927       -0.8391357096
 C         -7.3467563541       -2.2125679500       -1.2855000131
 C         -6.8358270013       -3.4897225288       -1.4286843342
 C         -5.5034451514       -3.7471183027       -1.0968462776
 C         -4.7007718607       -2.7310112636       -0.6603214593
 C         -5.1879985829       -1.4026196564       -0.5348923667
 C         -4.4120804118       -0.3306991434       -0.0920758506
 N         -3.0898669339       -0.2032412040        0.2737761062
 C         -2.0868358155       -1.1763883061        0.2932825879
 C         -1.6787849921       -1.8025358057       -0.8867497382
 C         -0.6600795999       -2.7340723338       -0.8546357177
 C         -0.0375561270       -3.0526251664        0.3436415252
 C         -0.4411700356       -2.4314526113        1.5166803288
 C         -1.4577161691       -1.4971622604        1.4982518330
 C         -0.4509590257        1.2875016431        0.8387244839
 C          3.0516664649        2.3379561528        0.6119374738
 C          4.2963541951        1.8751316406        0.2446957926
 C          7.0739192844       -2.0215909778       -0.4293630036
 C          7.5837940708       -3.1725511295        0.1385093462
 H          7.7391863345       -4.3671089063        1.9102113764
 H          6.3934895970       -2.8101107070        3.2756475241
 H          5.4942919383       -0.7504142363        2.2793771375
 H          8.4271695378        0.3763445732       -0.2121530875
 H          9.7425541991        1.5999223845       -1.8905635181
 H          8.6191595521        2.6669760156       -3.8135825822
 H          6.1669023677        2.4913786589       -4.0480448612
 H          4.8501135808        1.2535070467       -2.3810466883
 H          3.6758878457       -1.4476798609        0.3535609974
 H          1.4752607925       -0.6190820900        1.0222040497
 H          1.4201061913        3.6110686394        2.4348896642
 H         -0.8178628389        4.5148301055        2.9279877249
 H         -2.8394336448        3.3331158675        2.1301189024
 H         -6.2697768176        3.2369928547        0.5760374201
 H         -8.6412061222        3.7361343362       -0.0179908821
 H        -10.0151269488        1.9606021411       -1.0501812757
 H         -9.1046292523       -0.2416274519       -1.4510224331
 H         -8.3879280458       -2.0602905237       -1.5218338723
 H         -7.4711015646       -4.2886458785       -1.7796989469
 H         -5.1111125673       -4.7501384313       -1.1789714060
 H         -3.6821087036       -2.9425248222       -0.3806484883
 H         -2.1600867448       -1.5416860100       -1.8181919807
 H         -0.3429157386       -3.2094197809       -1.7710394506
 H          0.7612235429       -3.7784341969        0.3621432216
 H          0.0382667706       -2.6799307651        2.4523335270
 H         -1.7737657825       -1.0058700854        2.4064135651
 H         -0.3376930068        0.4475809933        0.1733464441
 H          2.8802277355        3.4026943916        0.6655255935
 H          5.0936107143        2.5729569042        0.0335653353
 H          7.2549197998       -1.8012733645       -1.4712374224
 H          8.1684256929       -3.8499225574       -0.4663180359
