  92
 
 C         -6.4297181810        5.0656865469       -1.6275066283
 C         -6.5525600786        4.3498544503       -0.2749443518
 C         -8.0210644862        3.9663365908       -0.0724815710
 C         -6.1512466273        5.3055644930        0.8576233749
 C         -5.6259765860        3.1425368000       -0.2619598235
 C         -4.2490451995        3.3453755114       -0.4260982535
 C         -3.3325073911        2.3138335355       -0.4202956613
 C         -3.8050411101        1.0238973914       -0.2348487428
 C         -5.1889017725        0.7891599584       -0.0962612652
 C         -6.0889890868        1.8466982923       -0.1056886093
 C         -5.3512172204       -0.6337544314        0.0203682739
 C         -6.4622828978       -1.4481311430        0.1965971864
 C         -6.2999308824       -2.8194169712        0.3021392284
 C         -7.4709764095       -3.7731734308        0.4898276217
 C         -8.8195913073       -3.0488719485        0.5250974155
 C         -7.4988439725       -4.7721481786       -0.6756271483
 C         -7.3007238057       -4.5264833676        1.8166779568
 C         -5.0022682322       -3.3455817644        0.2445188707
 C         -3.8810505903       -2.5604498407        0.0698601316
 C         -4.0586000223       -1.1919880575       -0.0618287258
 N         -3.1286270812       -0.1810309962       -0.2144934657
 C         -1.7454639723       -0.3478840587       -0.3248948627
 C         -0.8795039128        0.4160071447        0.4542596491
 C          0.4854135334        0.2539103968        0.3374316478
 C          1.0242949472       -0.6819152594       -0.5443263192
 C          2.4772196604       -0.8561006130       -0.6581607161
 C          3.0368486422       -2.1251376705       -0.8084551365
 C          4.4020911035       -2.2882048395       -0.9035595443
 C          5.2512631888       -1.1829881350       -0.8478834126
 C          6.6804647222       -1.4038791873       -0.9620185810
 N          7.2277075691       -2.3487623427       -1.6837597876
 N          8.5517755571       -2.2429689193       -1.5891672017
 C          8.8358152588       -1.2349205100       -0.8044523118
 C         10.1833573576       -0.8346878678       -0.4396324930
 C         10.4943747340       -0.3264176535        0.8196357367
 C         11.7966349678        0.0290683783        1.1187286815
 C         12.7984072984       -0.1233803144        0.1749059290
 C         12.4978690454       -0.6505819448       -1.0711228571
 C         11.1997137826       -1.0076584363       -1.3785613989
 N          7.6682687016       -0.6515620542       -0.3679792926
 C          7.5180206537        0.4531642359        0.4874861945
 C          6.7609123521        0.3303055745        1.6475615842
 C          6.6145106824        1.4212681447        2.4840434647
 C          7.2220234319        2.6265818470        2.1720050085
 C          7.9775111717        2.7440685990        1.0167542759
 C          8.1269728200        1.6621523725        0.1690739690
 C          4.6977884513        0.0900459638       -0.7250186660
 C          3.3303520007        0.2458098967       -0.6268494209
 C          0.1497694904       -1.4472869580       -1.3143911203
 C         -1.2159020318       -1.2798668158       -1.2146632889
 H         -7.1025901716        5.9201527499       -1.6624981760
 H         -5.4178278611        5.4228302448       -1.7973593417
 H         -6.6910563666        4.3865395319       -2.4364562669
 H         -8.1667597939        3.4683450329        0.8833520591
 H         -8.6349401798        4.8649673158       -0.0802540910
 H         -8.3693392519        3.3157940294       -0.8713538499
 H         -6.8169982066        6.1660892056        0.8761464074
 H         -5.1341722696        5.6661015904        0.7317643931
 H         -6.2163323235        4.7977152731        1.8177746173
 H         -3.8754103371        4.3480299602       -0.5688115965
 H         -2.2816456734        2.5121626755       -0.5698566952
 H         -7.1384666129        1.6305156719        0.0049429663
 H         -7.4344897193       -0.9876205202        0.2527052169
 H         -9.6187386189       -3.7765657717        0.6525636735
 H         -8.8669003750       -2.3500970276        1.3571138170
 H         -8.9993417178       -2.5119718108       -0.4034744027
 H         -8.3429982312       -5.4503733458       -0.5685416883
 H         -6.5894408832       -5.3653222942       -0.7123694515
 H         -7.5987101189       -4.2428736712       -1.6210894008
 H         -8.1414548474       -5.1983622294        1.9773407494
 H         -6.3883499345       -5.1162121442        1.8244083432
 H         -7.2577831105       -3.8222846953        2.6450917207
 H         -4.8585266616       -4.4107699341        0.3439267031
 H         -2.8971811759       -3.0048909658        0.0504696238
 H         -1.2858088980        1.1219253552        1.1631386484
 H          1.1449092612        0.8388719726        0.9617313645
 H          2.3933244746       -2.9921176163       -0.8283387536
 H          4.8376731225       -3.2682315806       -1.0198966133
 H          9.7274875569       -0.2256717913        1.5736438668
 H         12.0299047913        0.4229227737        2.0971371242
 H         13.8129067205        0.1595946520        0.4136326003
 H         13.2793910236       -0.7831719580       -1.8044885276
 H         10.9481156882       -1.4252939131       -2.3408147528
 H          6.2937100307       -0.6147061982        1.8826786887
 H          6.0267925485        1.3270455778        3.3846237319
 H          7.1068781949        3.4747163924        2.8296041460
 H          8.4507122856        3.6826633332        0.7711129696
 H          8.7121068784        1.7435116699       -0.7351020481
 H          5.3319112031        0.9645301897       -0.7286673799
 H          2.9148810446        1.2399862098       -0.5512238759
 H          0.5474755939       -2.1584424782       -2.0231224284
 H         -1.8822653449       -1.8561218755       -1.8388466344
