105

C     -9.346147    1.359312    4.552643
C     -8.504205    1.187136    3.323903
C     -7.119005    1.359460    3.383447
C     -6.328138    1.165050    2.245305
C     -6.898072    0.793396    1.015555
N     -6.076859    0.572046   -0.154525
C     -6.546844    0.831726   -1.497585
C     -6.086148    0.075859   -2.589086
C     -6.523710    0.339823   -3.892017
C     -7.435315    1.369007   -4.140696
C     -7.875103    1.675362   -5.541044
C     -7.879198    2.148956   -3.070259
C     -7.441227    1.882543   -1.768370
C     -4.716416    0.066972    0.028000
C     -4.521818   -1.308850    0.367184
C     -5.597935   -2.223106    0.508451
C     -5.405616   -3.562114    0.843182
C     -4.122329   -4.032741    1.041781
C     -3.043294   -3.161990    0.894877
C     -3.205641   -1.793167    0.550847
C     -2.096460   -0.905390    0.380863
C     -0.717057   -1.417714    0.560313
C     -0.085121   -1.352470    1.810297
C      1.217672   -1.827939    1.973368
C      1.920603   -2.380817    0.892495
P      3.612801   -2.948500    1.158055
O      3.782792   -3.508716    2.560667
C      3.982242   -4.200595   -0.085333
C      4.610925   -3.897867   -1.302015
C      4.862212   -4.902484   -2.238734
C      4.490002   -6.218281   -1.970575
C      3.868458   -6.533989   -0.764889
C      3.616953   -5.531605    0.171913
C      4.718440   -1.546414    0.890375
C      5.998106   -1.579532    1.465926
C      6.896584   -0.526524    1.278579
C      6.521805    0.582582    0.513708
N      7.433682    1.663548    0.321040
C      8.789246    1.531173    0.009533
C      9.587195    0.395914   -0.247541
C     10.937704    0.575430   -0.561278
C     11.486701    1.847824   -0.639869
C     10.688834    2.972956   -0.421124
C      9.320586    2.818196   -0.105197
C      8.267488    3.748292    0.134590
C      8.213937    5.159913    0.152929
C      7.018000    5.809410    0.467116
C      5.882543    5.073246    0.776143
C      5.909335    3.675673    0.761020
C      7.107301    3.019450    0.405980
C      5.246710    0.629092   -0.061047
C      4.353249   -0.429593    0.125895
C      1.286657   -2.455978   -0.355069
C     -0.016304   -1.977502   -0.518697
C     -2.296972    0.469241    0.036643
C     -1.219532    1.379453   -0.136174
C     -1.414012    2.723141   -0.453456
C     -2.699659    3.204681   -0.604144
C     -3.777648    2.336280   -0.443577
C     -3.611803    0.960994   -0.135310
C     -8.289808    0.594976    0.979645
C     -9.082330    0.787930    2.116479
H     -8.920510    2.121345    5.213935
H     -9.410534    0.412761    5.097990
H    -10.357871    1.685955    4.290500
H     -6.639589    1.646116    4.316843
H     -5.256147    1.320416    2.334391
H     -5.385034   -0.741151   -2.439873
H     -6.143185   -0.267725   -4.710034
H     -7.892048    0.767246   -6.152803
H     -7.191726    2.397331   -5.998418
H     -8.887993    2.091362   -5.549920
H     -8.563893    2.976915   -3.239257
H     -7.786310    2.530645   -0.966313
H     -6.622432   -1.892870    0.350643
H     -6.259116   -4.225971    0.947061
H     -3.952160   -5.072437    1.306744
H     -2.050006   -3.577863    1.056340
H     -0.609981   -0.929056    2.664856
H      1.690796   -1.771622    2.953165
H      4.913659   -2.880470   -1.535404
H      5.352613   -4.659634   -3.178339
H      4.689062   -6.999651   -2.699607
H      3.583190   -7.561027   -0.551217
H      3.137561   -5.786112    1.116494
H      6.289746   -2.431693    2.079512
H      7.862807   -0.570667    1.776257
H      9.175144   -0.608095   -0.223843
H     11.562517   -0.293765   -0.753797
H     12.538037    1.972183   -0.886122
H     11.120892    3.966330   -0.503432
H      9.104290    5.742614   -0.065927
H      6.983270    6.895668    0.485578
H      4.962691    5.588188    1.043819
H      5.018336    3.122465    1.041333
H      4.943424    1.462421   -0.691212
H      3.372850   -0.369713   -0.339982
H      1.795754   -2.884599   -1.214693
H     -0.490957   -2.043518   -1.496413
H     -0.190197    1.045735   -0.018696
H     -0.561242    3.384887   -0.575128
H     -2.873291    4.249692   -0.844405
H     -4.774656    2.756085   -0.558796
H     -8.772906    0.254845    0.066748
H    -10.153891    0.614272    2.050290
