105
 xtb: 6.7.1 (edcfbbe)
C          -10.52626157938700       -1.41498560198490        2.86719761318429
C           -9.41621441191526       -0.79276823050171        2.07548248024395
C           -8.11042354749506       -0.82191256756426        2.55332944301941
C           -7.07414771528353       -0.26074644234584        1.83717184754014
C           -7.31567613038545        0.34545710985393        0.60372878850864
N           -6.25401318132408        0.89076678154757       -0.12068992771592
C           -6.41571851968182        1.99448665898966       -0.95963353250201
C           -5.61086444625783        2.12802408916874       -2.09189003847332
C           -5.74441459161935        3.22423124208702       -2.91757931452750
C           -6.68306671572584        4.21611720883481       -2.65350879482683
C           -6.80898729981248        5.39959305454213       -3.56454223464532
C           -7.47978672796680        4.07928500166459       -1.52494148511125
C           -7.34960228178426        2.99218584395171       -0.68294589534476
C           -4.97622089717718        0.30797699000979       -0.00155750667884
C           -4.79129090162459       -1.04391007760620       -0.34422749637425
C           -5.84244539393163       -1.84281093861599       -0.86222011373619
C           -5.64960126358058       -3.15662166698136       -1.16222918151704
C           -4.39439921610235       -3.75786931097555       -0.94937376239231
C           -3.35053563398709       -3.01741934836786       -0.48691557977610
C           -3.49817716733637       -1.63515866545956       -0.19873833950583
C           -2.41408028718852       -0.85277830027918        0.22303826252353
C           -1.06875677942680       -1.45336481664015        0.33298184046689
C           -0.47025745009849       -1.62299883040882        1.57937434329943
C            0.79869026528739       -2.15903947393241        1.67433453666603
C            1.48882420285168       -2.52910581587488        0.52772941607329
P            3.18717930385777       -3.13857215914661        0.77081493642768
O            3.39091528050025       -3.82355220360958        2.05193191669149
C            3.55081445676187       -4.18525067304448       -0.67642176873657
C            3.95204537271787       -3.68224438884052       -1.90666135909301
C            4.19138286059415       -4.55123315559443       -2.95637127073157
C            4.03190351381265       -5.91666039121165       -2.78090618916086
C            3.63874091252071       -6.41938819051341       -1.55106077387840
C            3.39926840670734       -5.55351691743096       -0.49952563120187
C            4.22410499139468       -1.65258327162170        0.57757170580661
C            5.40442946832689       -1.61219661622513        1.30766716711702
C            6.24001995578750       -0.51667202877094        1.22706984468446
C            5.90152063331191        0.55418059799993        0.40126718689132
N            6.73819159624706        1.67066181172755        0.31432026732044
C            8.10340242940022        1.64600258049836        0.09668518506078
C            8.94265750027499        0.56624932004519       -0.13651917877895
C           10.28183957232495        0.82619584360954       -0.35750342075578
C           10.78053418233605        2.12677004092244       -0.35821133212692
C            9.94544685153764        3.20677606434205       -0.15333525176007
C            8.59573316521856        2.97059537716666        0.07132679999230
C            7.46733656103065        3.83116096973977        0.29386280652745
C            7.32390671047944        5.20850682732486        0.39595945318496
C            6.06891133583681        5.72596049757129        0.64692436808162
C            4.96926205358410        4.88738306291139        0.81274911679062
C            5.08720035865544        3.51391302938673        0.71544545282425
C            6.34082599759783        2.98956721090521        0.43574217477200
C            4.71664955857757        0.51190716835081       -0.33249613424485
C            3.88043497620718       -0.58243931790639       -0.23867207948027
C            0.89330749120624       -2.37968213823269       -0.71754835566437
C           -0.37873671510695       -1.84809756761688       -0.81089086434663
C           -2.59460574103131        0.50203429695527        0.53739086213614
C           -1.50920118288601        1.32689193216775        0.93401204678270
C           -1.70166859733439        2.62621068810139        1.28967934474495
C           -2.99665141240024        3.17844102538152        1.28055455761484
C           -4.05864452261400        2.43247339910729        0.86965173233692
C           -3.89664204609702        1.08558554224059        0.45586417983053
C           -8.62076947800322        0.36582084688697        0.11333731038403
C           -9.65035841063551       -0.19085763361234        0.84656124425888
H          -10.59298427811309       -0.94187785022014        3.85627648092167
H          -10.34954364854637       -2.47424086845090        3.01573074502501
H          -11.48515185050882       -1.28057352588606        2.36242612861887
H           -7.90541695439309       -1.28905841033338        3.50597303059878
H           -6.06746732124804       -0.28753240067492        2.22736591690429
H           -4.88257806026988        1.36169686681351       -2.31792686486414
H           -5.11432278736234        3.30739857336128       -3.79257525581511
H           -6.81789675555437        5.09147487864086       -4.60549946748397
H           -5.95905814603765        6.07515754027598       -3.41801458035470
H           -7.72361535873819        5.95684864637585       -3.34894387536370
H           -8.20970128078744        4.84040642332516       -1.29250384821118
H           -7.96411382940802        2.91913397047383        0.20207093502933
H           -6.80926120696890       -1.39402793406735       -1.02560294048820
H           -6.46055911343945       -3.74779551455018       -1.56087150084592
H           -4.26562222469891       -4.80872923920514       -1.16389027492931
H           -2.38603739958939       -3.47680858128074       -0.32730590746316
H           -1.00940637484952       -1.33258860094454        2.46950220071932
H            1.27376192148295       -2.30518750326111        2.63411109191152
H            4.08820221489490       -2.61779319749158       -2.03847308974188
H            4.50591329884138       -4.16274855198755       -3.91474154087576
H            4.22038152521258       -6.58980983916863       -3.60466866313295
H            3.52105844115418       -7.48416542030033       -1.41421547576414
H            3.10346819694703       -5.91965859919604        0.47286146015846
H            5.64112870563643       -2.44533234683046        1.95363071255685
H            7.14492613800669       -0.47122848152888        1.81440676181869
H            8.56467306186142       -0.44477178936826       -0.15728009928320
H           10.95618368787706        0.00182285166536       -0.53748751418943
H           11.83424930752229        2.28787767462171       -0.53172677310182
H           10.32800735097309        4.21616095328264       -0.17098861783415
H            8.18045900571413        5.85644575332552        0.28604235707397
H            5.93497929817987        6.79432162808917        0.72780805895190
H            4.00298837217719        5.31943560057094        1.02670197220181
H            4.23174186796606        2.87325162263478        0.86730539034713
H            4.46499996215439        1.33661160639610       -0.98293307049066
H            2.95564335655559       -0.60320315191882       -0.79777858448033
H            1.42141292847153       -2.68492373939287       -1.61039310018842
H           -0.84543728027619       -1.72401593032669       -1.77787922520016
H           -0.51663561710681        0.90126732640483        0.94904474723172
H           -0.86505410419421        3.23936671737779        1.59091272329053
H           -3.14058311283571        4.20013065449113        1.59883656827249
H           -5.04616873044793        2.86591923777277        0.86470708107069
H           -8.82280565125418        0.80868548702219       -0.85131375416961
H          -10.65425158464625       -0.16521980313255        0.44596799744304
