105
 xtb: 6.7.1 (edcfbbe)
C           -9.33786329403233        1.00544983900413        4.45318142145771
C           -8.47561939627088        0.90346515562714        3.23166648181596
C           -7.09702915208068        1.05874729709920        3.32930071831742
C           -6.28579584134630        0.96039730008887        2.21849289102927
C           -6.83577265085501        0.69231497335254        0.96432531406354
N           -6.00054300361524        0.57583534601886       -0.14806314490844
C           -6.41721926938209        0.92637937037586       -1.43298303519450
C           -5.89378148127602        0.25765480104852       -2.53876852539207
C           -6.28426102686674        0.60657211258668       -3.81628933015934
C           -7.20856182379327        1.61941128719540       -4.03487715657916
C           -7.62205445833071        2.00938081019749       -5.42158129093133
C           -7.72316431439060        2.28705535736192       -2.92889878658391
C           -7.33419393562748        1.95658219359317       -1.64734477194279
C           -4.69127747165044        0.08363927703755        0.03292008356319
C           -4.49847133176764       -1.20623795363812        0.56027631910711
C           -5.58422231533131       -2.06451471433016        0.87024449160572
C           -5.37717245144681       -3.31358517891099        1.37047132648035
C           -4.06852563672895       -3.78547645237275        1.58738325804574
C           -2.99882436404875       -3.00294988264268        1.27919108143933
C           -3.16953450623139       -1.69465217292341        0.75507020145897
C           -2.07249715587560       -0.90109813391670        0.39224354571191
C           -0.69974343603695       -1.41845372047816        0.57470368136938
C           -0.15129779233669       -1.53641281198954        1.84914624207327
C            1.13431961755754       -2.01454045201601        2.01116894721073
C            1.88714400252212       -2.38389746289038        0.90479187443577
P            3.57995347091053       -2.96853037784208        1.22888131917549
O            3.75801075793722       -3.53723362098745        2.56951204315487
C            3.95266194565126       -4.14505163712397       -0.11279949616668
C            4.38811807139513       -3.75686284806755       -1.37256886006081
C            4.63218739403033       -4.71683630741425       -2.33851307131465
C            4.44349038368469       -6.05909845640726       -2.04994989118493
C            4.01611143182457       -6.44722936248043       -0.79038850010683
C            3.77156048534735       -5.49005145177454        0.17748809043025
C            4.65255248135417       -1.53035023977025        0.90925980376354
C            5.86097006704528       -1.49650820656007        1.59273912920135
C            6.74350093998520       -0.45292356485764        1.40256714956476
C            6.42407727081891        0.57155618091040        0.51273269787861
N            7.31467266956178        1.62956705224051        0.30822636438719
C            8.66467791592005        1.50880158511323        0.03538369655556
C            9.42997490442716        0.36727646921566       -0.15399061373681
C           10.76987065847160        0.53090432408396       -0.45007538324187
C           11.34028369126123        1.79629143850705       -0.56688473878837
C           10.57783039934584        2.93578986904711       -0.40568699337159
C            9.22896890393239        2.79675975017846       -0.10684945095464
C            8.16224777060538        3.73614570212109        0.10075284318598
C            8.10137815242092        5.12332013018639        0.11063111041707
C            6.89052638174697        5.73025815261123        0.37758251536505
C            5.75410670690116        4.97184402370268        0.64854749646841
C            5.78985071309608        3.59035126415782        0.64401532149627
C            6.99796607958577        2.97480107248646        0.35046898955526
C            5.20882526749289        0.53892119285426       -0.16960100321258
C            4.32686785239782       -0.50419272886717        0.03209535557172
C            1.34296325627419       -2.28183882057525       -0.36888847253684
C            0.05855179879231       -1.79917091337797       -0.52990690376235
C           -2.26665099644303        0.37923752711292       -0.14443846556330
C           -1.17156939867054        1.21434147211403       -0.48915968767568
C           -1.36530106424429        2.47396170734767       -0.96594063977824
C           -2.66992755762371        2.98323270374602       -1.11037453821232
C           -3.74752365800733        2.21462495667366       -0.79223154757548
C           -3.59108343580904        0.88838215756106       -0.31452721254376
C           -8.21582967178849        0.52062295455535        0.86281816357475
C           -9.01700789029141        0.63269847708596        1.98220657323703
H           -8.99433240971797        1.79911544676040        5.10986785081520
H           -9.30960856968088        0.06367480946439        5.01108122494951
H          -10.37904922244301        1.19835604639335        4.17402317201920
H           -6.65195932944115        1.27073639046796        4.29242078102744
H           -5.21712678562008        1.09406516014311        2.31172232060417
H           -5.18066870881028       -0.53888768624514       -2.38808926908469
H           -5.86838706442868        0.07614829026552       -4.65942047664647
H           -7.54335430204604        1.15493418352963       -6.09907844525402
H           -6.96714477043635        2.79773622276406       -5.80092118131695
H           -8.64345002767431        2.37884806872173       -5.43565667373300
H           -8.43605047574765        3.08799253058803       -3.07258494895810
H           -7.73122206987878        2.50303484809489       -0.80280933257208
H           -6.59076787106268       -1.71953323890847        0.69436239370246
H           -6.21665121390251       -3.95400506905855        1.59732501964090
H           -3.92151569731768       -4.77794800781001        1.98761699664115
H           -1.99468676615327       -3.37272837658192        1.42500625830638
H           -0.73958627268574       -1.24622514765229        2.70758186792364
H            1.57265506349184       -2.11866039890362        2.99341430884364
H            4.54742804221333       -2.71014017752189       -1.59156490598448
H            4.97383286946922       -4.41807105627124       -3.31913378487278
H            4.63698416207367       -6.80412498687395       -2.80785606546497
H            3.87682642451618       -7.49430442036801       -0.56456070427874
H            3.44965801820467       -5.76600117598149        1.17152660207041
H            6.08369842280343       -2.29253988882015        2.28849053122743
H            7.67265165121467       -0.41137800630209        1.95076683666472
H            8.99505183116728       -0.61807080808817       -0.08355522269760
H           11.38757444622112       -0.34219839930699       -0.59700716681018
H           12.39169402923146        1.88245856294457       -0.79637975086004
H           11.01477042165519        3.91736068403008       -0.51338416765192
H            8.98621483879859        5.71059267500986       -0.08159862724549
H            6.82007994631856        6.80792975613117        0.38805106143417
H            4.82390370512692        5.47422515116570        0.87174346885884
H            4.90714746108604        3.01336408042533        0.87651815971704
H            4.97026273494872        1.32757950574607       -0.86805933512983
H            3.38200157986834       -0.52038570871348       -0.49260390947921
H            1.91888633729681       -2.59148263397369       -1.23012552128146
H           -0.37173145100861       -1.71970725984492       -1.51835682764939
H           -0.17075852524202        0.83046498640073       -0.35582120830161
H           -0.52108492304126        3.09650439449676       -1.22371313346264
H           -2.80879309606075        3.99242842394316       -1.46804241821259
H           -4.74159134386469        2.62059274368039       -0.89197956975836
H           -8.65674346446071        0.28625447449451       -0.09423705388454
H          -10.08359130613628        0.49658955689023        1.88260844779219
