  100
 
 C         -7.9838333014        2.2081653284       -2.4413939881
 C         -6.8463721466        2.3944994750       -1.4824370463
 C         -6.7792798820        3.5002216897       -0.6455533233
 C         -5.7163645374        3.6571076200        0.2257791317
 C         -4.6901920900        2.7265649892        0.3027007562
 C         -3.5761489448        2.9069230584        1.2889087155
 C         -4.7484659929        1.6178985368       -0.5493718138
 N         -3.7400278248        0.6291490581       -0.5099586235
 C         -2.4091261373        1.0150886212       -0.7232020111
 C         -2.1404431198        2.0071833232       -1.6644752131
 C         -0.8485231176        2.3972186876       -1.9372368883
 C          0.2308405553        1.8078034841       -1.2749255228
 C          1.5774119298        2.1466206947       -1.5782665467
 C          2.6145988438        1.5874533742       -0.9114028308
 C          2.4035433228        0.6461165365        0.1374453909
 C          3.4586807559        0.0636774609        0.8698866887
 N          4.7965220004        0.4256783397        0.6745880636
 C          5.2141501335        1.7661644790        0.5505547423
 C          6.1448450878        2.0788924022       -0.4409514790
 C          6.6068781970        3.3702544353       -0.6260411015
 C          7.6219445126        3.6781408156       -1.6849090627
 C          6.1118425238        4.3695169295        0.2045054623
 C          5.1979620639        4.0651674302        1.1947763616
 C          4.7376947114        2.7703971734        1.4013579836
 C          3.7791619699        2.4931306115        2.5199026598
 C          5.7574210597       -0.5830456937        0.6298264884
 C          7.0460162620       -0.4043365783        1.1336240086
 C          8.0046631155       -1.4077704384        1.0748838404
 C          7.7257876076       -2.6439234037        0.5253105287
 C          6.4466928376       -2.8565464305        0.0221030625
 C          5.4839573826       -1.8341345793        0.0696588853
 O          4.2985135175       -2.2296530657       -0.4862047086
 C          4.4813623185       -3.5155911293       -0.8933900199
 C          3.5396418478       -4.3247044256       -1.5043848749
 C          3.9302468751       -5.6104174004       -1.8348851310
 C          5.2166396273       -6.0720107451       -1.5647102979
 C          6.1551391489       -5.2625198341       -0.9545990759
 C          5.7854731530       -3.9677648453       -0.6128945439
 C          3.1785419573       -0.9176776791        1.8235934341
 C          1.8890219073       -1.3051004415        2.0962503421
 C          0.8119891460       -0.7202299733        1.4250109151
 C         -0.5339298749       -1.0597632686        1.7286240504
 C         -1.5701807887       -0.5034830260        1.0579583511
 C         -1.3516517073        0.4366011574        0.0104618432
 C         -0.0189474372        0.8302839928       -0.2792998501
 C          1.0685994485        0.2542905552        0.4295197702
 C         -4.1173945857       -0.7070434896       -0.5824744406
 C         -3.3659927074       -1.6663067201       -1.2627717236
 C         -3.7478362661       -3.0008599681       -1.3121324534
 C         -4.9055766895       -3.4465550574       -0.7057190616
 C         -5.6843932673       -2.5119649395       -0.0309080586
 C         -5.2852416926       -1.1668113514        0.0339460103
 O         -6.1697247882       -0.4112469108        0.7545679366
 C         -7.1561532033       -1.2595783572        1.1525443063
 C         -8.2722904134       -0.9272927034        1.9000305204
 C         -9.1598994571       -1.9460578184        2.1980119933
 C         -8.9404052976       -3.2517918908        1.7643985869
 C         -7.8260128474       -3.5811961389        1.0174574438
 C         -6.9208221454       -2.5746140348        0.7056510807
 C         -5.8157106142        1.4689793796       -1.4288328820
 H         -8.8404673172        2.8097767947       -2.1475016109
 H         -7.6821816240        2.5114191233       -3.4448389952
 H         -8.2838471269        1.1626349622       -2.4838575782
 H         -7.5666913683        4.2398880461       -0.6687134899
 H         -5.6896201712        4.5184390896        0.8786370810
 H         -3.3080834830        1.9567374648        1.7468688855
 H         -2.6855576111        3.3043880104        0.8005017282
 H         -3.8745483795        3.6015864549        2.0706824871
 H         -2.9671617652        2.4566505765       -2.1961950919
 H         -0.6600144448        3.1546029190       -2.6844367735
 H          1.7582200932        2.8607023939       -2.3693013205
 H          3.6239474419        1.8509002877       -1.1822142493
 H          6.5021665696        1.2845271675       -1.0822021575
 H          8.6243343371        3.6586108823       -1.2553128562
 H          7.4555320013        4.6685819041       -2.1028975987
 H          7.5838262996        2.9432828000       -2.4856990502
 H          6.4490714272        5.3880161664        0.0786334423
 H          4.8357851970        4.8528637180        1.8403060630
 H          2.7567743159        2.4194134538        2.1474040501
 H          4.0209695616        1.5571835708        3.0195881535
 H          3.8161682749        3.2987130435        3.2498603856
 H          7.2967019477        0.5467103736        1.5788051265
 H          8.9862052396       -1.2114790590        1.4797606495
 H          8.4705764933       -3.4224100937        0.4845093383
 H          2.5454780877       -3.9582433724       -1.7066496687
 H          3.2209963532       -6.2702768752       -2.3117274492
 H          5.4815125060       -7.0823414210       -1.8389609487
 H          7.1508867843       -5.6222629563       -0.7452921214
 H          3.9998904120       -1.3610707520        2.3702388081
 H          1.6979598158       -2.0561884105        2.8493647631
 H         -0.7140771191       -1.7717548434        2.5217897911
 H         -2.5835212156       -0.7626775899        1.3244115225
 H         -2.4605494293       -1.3546131538       -1.7612430284
 H         -3.1228635870       -3.6980031929       -1.8502212000
 H         -5.2023207025       -4.4821163113       -0.7508853902
 H         -8.4333831629        0.0874475223        2.2282917153
 H        -10.0424216609       -1.7232091755        2.7788623883
 H         -9.6574673308       -4.0182474923        2.0185599472
 H         -7.6583049551       -4.5931716475        0.6817069866
 H         -5.8387666469        0.6057973206       -2.0811425164
