  47
 
 C         -1.7737715431       -2.0555429044        1.2974605830
 C         -1.1228985707       -1.5139755249       -0.0000140201
 C         -1.7732606428       -2.0552663696       -1.2978627843
 C          0.3035772895       -2.0365414426        0.0001356215
 C          0.5156430545       -3.4082677858        0.0002313725
 C          1.7888029946       -3.9477204553        0.0002502377
 C          2.8836935381       -3.1019694826        0.0001848935
 C          2.6983305714       -1.7350361232        0.0001115293
 C          1.4116899903       -1.1902946852        0.0000828730
 N          1.2339149349        0.1829661407        0.0000201863
 C          2.3929166054        1.0109708657       -0.0000506497
 C          2.9627518654        1.4062151195       -1.2037129897
 C          4.0982274327        2.1968242799       -1.2000221383
 C          4.6662634884        2.5921283448       -0.0002009563
 C          4.0983468965        2.1968803342        1.1996955958
 C          2.9628734570        1.4062703031        1.2035368039
 C         -0.0220846284        0.7618153084        0.0000842012
 C         -0.0849746220        2.1758875433        0.0001545573
 C         -1.2775077159        2.8249038862        0.0001913441
 C         -2.4853252101        2.1015732752        0.0001423826
 C         -3.7137686188        2.7903975720        0.0001421048
 C         -4.8811585598        2.0880654053        0.0000700075
 F         -6.0664813019        2.7409312261        0.0000600514
 C         -4.8843730697        0.6903576041        0.0000230615
 C         -3.6980855817        0.0115114333        0.0000530097
 C         -2.4444173908        0.6775173533        0.0001004379
 C         -1.1861091531        0.0066103506        0.0000824280
 H         -2.1981562545       -3.0444898150        1.1435242529
 H         -2.5496967512       -1.3988783873        1.6761734007
 H         -1.0117060600       -2.1346751032        2.0714831515
 H         -2.1964074273       -3.0448542344       -1.1447513685
 H         -2.5500332153       -1.3993356909       -1.6760587893
 H         -1.0112366789       -2.1328858984       -2.0720630251
 H         -0.3338960327       -4.0731613249        0.0002822293
 H          1.9235031011       -5.0185693163        0.0003092797
 H          3.8858949910       -3.5040075205        0.0001990394
 H          3.5565268471       -1.0806341670        0.0000765690
 H          2.5109751770        1.0902492380       -2.1324201814
 H          4.5408951671        2.5038250445       -2.1358227300
 H          5.5529074590        3.2081496908       -0.0002590275
 H          4.5411063980        2.5039261042        2.1354379927
 H          2.5111883162        1.0903482305        2.1323035846
 H          0.8340819923        2.7408406840        0.0001825910
 H         -1.3126718320        3.9041430769        0.0002496619
 H         -3.7219681380        3.8694119595        0.0002004438
 H         -5.8273837412        0.1661575681       -0.0000258061
 H         -3.7467398275       -1.0627717105        0.0000289876
