  54
 
 O          6.3935954605       -2.3432964204        1.1474463675
 C          5.9599388864       -1.3371734275        0.6215388242
 C          6.8662617117       -0.2965571617        0.0696315520
 C          6.5486959488        0.4175821220       -1.0835995381
 C          7.4359446196        1.3528824953       -1.5839162416
 C          8.6383737729        1.5898881315       -0.9370613047
 C          8.9649718872        0.8745033968        0.2039507173
 C          8.0888273763       -0.0725115466        0.6987008671
 C          4.5019996726       -1.0891739896        0.5021773365
 C          3.6413932905       -2.1819130415        0.4078160986
 C          2.2782627509       -1.9961189778        0.3185583376
 C          1.7343586361       -0.7117253639        0.3389492823
 C          0.2831239871       -0.5093091329        0.2495969466
 C         -0.5968723313       -1.3478194907        0.9320863133
 C         -1.9607862842       -1.1523955798        0.8612639347
 C         -2.4811613839       -0.1188122839        0.0860268902
 N         -3.8640018253        0.0782988264        0.0060490996
 C         -4.5214890414        1.2792522720        0.1919388347
 C         -4.0118075831        2.5222012292        0.5388025920
 C         -4.9044069110        3.5659136005        0.6915623182
 C         -6.2740714128        3.3840746536        0.5143401208
 C         -6.7895489199        2.1440626271        0.1944023226
 C         -5.9122024690        1.0795769326        0.0355868671
 C         -6.0937693762       -0.3130339252       -0.2650770823
 C         -7.2099282775       -1.0934055927       -0.5358833191
 C         -7.0283817294       -2.4330903665       -0.8150877483
 C         -5.7528112890       -2.9922738670       -0.8422336912
 C         -4.6272181555       -2.2361462404       -0.5763545966
 C         -4.8054253951       -0.8948242419       -0.2696296988
 C         -1.6098868317        0.7173142905       -0.6080520467
 C         -0.2463522426        0.5273756604       -0.5173368751
 C          2.5971071810        0.3780748221        0.4567287763
 C          3.9626300968        0.1956539029        0.5362361544
 H          5.6195958314        0.2220994667       -1.5993266241
 H          7.1896235617        1.8995507025       -2.4824215964
 H          9.3242984153        2.3271931270       -1.3275631382
 H          9.9059016239        1.0522972777        0.7032410743
 H          8.3303032882       -0.6467340956        1.5808397121
 H          4.0667460939       -3.1745039095        0.3960016447
 H          1.6251323535       -2.8501281699        0.2161240125
 H         -0.2047402171       -2.1404370190        1.5519126817
 H         -2.6317932093       -1.7872437342        1.4202339800
 H         -2.9542372341        2.6700286183        0.6978618620
 H         -4.5316505114        4.5439053193        0.9584261158
 H         -6.9386685934        4.2258390534        0.6400175726
 H         -7.8524538719        1.9985410132        0.0739870197
 H         -8.1967014163       -0.6555542415       -0.5314785331
 H         -7.8831545874       -3.0584229962       -1.0256917091
 H         -5.6403399803       -4.0397954588       -1.0801610408
 H         -3.6419757254       -2.6754843119       -0.6191460746
 H         -2.0103871952        1.5036807765       -1.2302010517
 H          0.4182164644        1.1715534761       -1.0740746409
 H          2.1876481508        1.3762794488        0.5096790009
 H          4.6132719397        1.0502583442        0.6525753213
