  53
 
 C          9.1116257797        0.0190917578       -0.2425046027
 C          8.4570494154       -0.7650177858        0.6924726619
 C          7.0758687058       -0.7793692073        0.7438373602
 C          6.3280666501       -0.0119426461       -0.1458327212
 C          4.8608735354       -0.0211947613       -0.1024664172
 C          4.0955503061       -0.0516372646       -1.2602463718
 C          2.7047952726       -0.0581906065       -1.2355456771
 C          1.9809705558       -0.0180169582       -0.0534563537
 C          0.5179256258       -0.0186988153       -0.0382355211
 C         -0.1986573799       -0.7341116326       -0.9985299424
 C         -1.5777465623       -0.7312946948       -1.0015007326
 C         -2.2789131591       -0.0108388201       -0.0372862081
 N         -3.6779137040       -0.0040606512       -0.0399964382
 C         -4.4926364060       -1.1172625272       -0.1188122747
 C         -4.1522764586       -2.4619625543       -0.1521058746
 C         -5.1782741896       -3.3861654649       -0.2020467467
 C         -6.5141438460       -2.9912268157       -0.2095503066
 C         -6.8593855891       -1.6559881035       -0.1496000445
 C         -5.8457100346       -0.7083664349       -0.0987177066
 C         -5.8380605643        0.7249653265       -0.0083799310
 C         -6.8414188540        1.6840968358        0.0293844170
 C         -6.4817600342        3.0152505109        0.0951797464
 C         -5.1414831886        3.3947955461        0.1073163943
 C         -4.1255189640        2.4589497035        0.0704437505
 C         -4.4807701730        1.1183100400        0.0302095439
 C         -1.5712689205        0.6996505827        0.9295009676
 C         -0.1921634670        0.6948417499        0.9275741738
 C          2.7332906901        0.0287161227        1.1362965285
 N          2.2597794324        0.0804813303        2.4051575572
 N          3.1272391995        0.1169730595        3.2952197862
 S          4.7052394256        0.0859355473        2.7352603121
 C          4.1513582698        0.0116227669        1.0987050453
 C          6.9954683749        0.7689544878       -1.0872694030
 C          8.3766275390        0.7860057782       -1.1313178627
 H         10.1906678021        0.0327041621       -0.2785441529
 H          9.0242429107       -1.3694298147        1.3847051307
 H          6.5737018199       -1.4086161851        1.4641852315
 H          4.6005082269       -0.0883522161       -2.2141089767
 H          2.1740114537       -0.0709282376       -2.1754897500
 H          0.3290516749       -1.3149519061       -1.7404079477
 H         -2.1209393714       -1.2765758084       -1.7588465218
 H         -3.1210175574       -2.7801615598       -0.1256264752
 H         -4.9386836482       -4.4389509896       -0.2315555391
 H         -7.2868226707       -3.7443893922       -0.2522429135
 H         -7.8945604051       -1.3497998527       -0.1369376614
 H         -7.8797636932        1.3897410266        0.0029821373
 H         -7.2462875222        3.7771552645        0.1283521138
 H         -4.8902656307        4.4446719813        0.1428688443
 H         -3.0903543000        2.7652598180        0.0618068819
 H         -2.1102936386        1.2406157240        1.6924492044
 H          0.3450198328        1.2439700352        1.6840568880
 H          6.4261986311        1.3825067184       -1.7703886805
 H          8.8819598019        1.4022358309       -1.8604129212
