  99
 
 C          7.2496597544       -4.8005455246       -0.0064396038
 C          5.8647386195       -4.7960937823       -0.0691249522
 C          5.1749064528       -3.5996106620       -0.0632495969
 C          5.8709377515       -2.3938347522        0.0048915722
 C          5.1428801345       -1.1259356254        0.0089228632
 N          5.8450175900        0.0033300558        0.0052920344
 C          5.1416003073        1.1317943325        0.0004875977
 C          5.8681976928        2.4005266581        0.0056533703
 C          7.2604036202        2.4118588552       -0.0539560859
 C          7.9423791071        3.6129223467       -0.0476320893
 C          7.2441312429        4.8088224592        0.0190400629
 C          5.8591077894        4.8027888212        0.0792841403
 C          5.1706631097        3.6055126483        0.0723842274
 N          3.8112316776        1.1770469417       -0.0076642581
 C          3.1925346131        0.0018166838        0.0030878538
 C          1.7301465646        0.0009862673        0.0018139071
 C          1.0335941231        1.1750096019       -0.2606463113
 C         -0.3527735933        1.1839671652       -0.2667086067
 N         -1.0344368862        2.3778690078       -0.5327014928
 C         -2.1046369780        2.5335535067       -1.3945852525
 C         -2.5589940661        1.6848002455       -2.3918572443
 C         -3.6649336634        2.0797842552       -3.1192419706
 C         -4.2870483421        3.3032062883       -2.8853907730
 C         -3.7977964103        4.1800390812       -1.9374691771
 C         -2.6924285246        3.8005050625       -1.1889459733
 C         -1.9211009855        4.4469527760       -0.1635809073
 C         -2.0117389558        5.6822963891        0.4627653535
 C         -1.0945458879        5.9948466138        1.4465642396
 C         -0.1030489527        5.0892575718        1.8150165332
 C          0.0051909568        3.8517612911        1.2085179226
 C         -0.9036760452        3.5404789681        0.2084832903
 C         -1.0660846894       -0.0006209099       -0.0008015986
 N         -2.4631550109       -0.0013997133       -0.0021278930
 C         -3.2744489327        0.8142386831        0.7660283578
 C         -2.9259313036        1.7392296154        1.7377161738
 C         -3.9450510291        2.4260661295        2.3686713116
 C         -5.2809369238        2.1794294368        2.0655998639
 C         -5.6335353438        1.2184319103        1.1386929668
 C         -4.6262417854        0.5233795379        0.4848722077
 C         -4.6247486426       -0.5284595757       -0.4932684394
 C         -5.6300569869       -1.2245855096       -1.1489987092
 C         -5.2746739179       -2.1852370470       -2.0752000122
 C         -3.9379508325       -2.4304834333       -2.3756971359
 C         -2.9207626601       -1.7425591898       -1.7428121102
 C         -3.2721127334       -0.8178990631       -0.7718298663
 C         -0.3519177448       -1.1843895479        0.2664593851
 N         -1.0326963280       -2.3790892117        0.5311220547
 C         -0.8990824962       -3.5415479204       -0.2098003210
 C          0.0121780532       -3.8517862154       -1.2079794104
 C         -0.0933707105       -5.0894248035       -1.8146636216
 C         -1.0845536864       -5.9961678554       -1.4482143268
 C         -2.0041308350       -5.6846598214       -0.4663123165
 C         -1.9162158369       -4.4491981187        0.1601882460
 C         -2.6903929443       -3.8036390018        1.1839643023
 C         -3.7968832560       -4.1844335364        1.9301844632
 C         -4.2890988402       -3.3081647085        2.8770925430
 C         -3.6688405776       -2.0840539029        3.1122635985
 C         -2.5618378013       -1.6878122078        2.3871837241
 C         -2.1044730246       -2.5360200638        1.3908227760
 C          1.0344513358       -1.1738296800        0.2629974519
 N          3.8125520117       -1.1727083531        0.0148700800
 C          7.2630486398       -2.4035766218        0.0669545422
 C          7.9464141816       -3.6038545714        0.0616530976
 H          7.7867992806       -5.7377643304       -0.0107254858
 H          5.3238582089       -5.7295365954       -0.1226124074
 H          4.0975698880       -3.5777236675       -0.1132209168
 H          7.7861963607        1.4715525217       -0.1065518261
 H          9.0214559962        3.6206263632       -0.0948205244
 H          7.7801847244        5.7466589302        0.0241204544
 H          5.3170613646        5.7356174959        0.1316685581
 H          4.0932660162        3.5823949110        0.1204565834
 H          1.5826504924        2.0736089764       -0.4914756548
 H         -2.0642457699        0.7497398076       -2.6045161068
 H         -4.0500154108        1.4255317699       -3.8871229798
 H         -5.1531766858        3.5744983577       -3.4702734911
 H         -4.2600084235        5.1427940043       -1.7803748507
 H         -2.7877718160        6.3792949900        0.1851142272
 H         -1.1462410676        6.9517006793        1.9444450044
 H          0.5954112277        5.3572242580        2.5941357745
 H          0.7687830276        3.1515265683        1.5136229767
 H         -1.8960499908        1.9189871183        2.0070397555
 H         -3.6961626388        3.1652131421        3.1155681896
 H         -6.0497413800        2.7384981635        2.5778138697
 H         -6.6702167960        1.0060716435        0.9259552277
 H         -6.6673662962       -1.0133122533       -0.9382476097
 H         -6.0419080534       -2.7451307860       -2.5888656889
 H         -3.6868556772       -3.1693996309       -3.1220836782
 H         -1.8901785638       -1.9212579805       -2.0101459249
 H          0.7755658576       -3.1506666148       -1.5115561578
 H          0.6069977333       -5.3565911976       -2.5923432157
 H         -1.1341018536       -6.9530991484       -1.9461646475
 H         -2.7799160155       -6.3825570050       -0.1902317046
 H         -4.2576825727       -5.1477056370        1.7721143198
 H         -5.1561443001       -3.5804354460        3.4601584813
 H         -4.0562487453       -1.4302504909        3.8793564563
 H         -2.0685782512       -0.7522065416        2.6008972039
 H          1.5841118278       -2.0717932465        0.4948607416
 H          7.7876666788       -1.4626745718        0.1206179186
 H          9.0254144587       -3.6103258342        0.1107430696
