69
 xtb: 6.7.1 (edcfbbe)
C           -6.59083015833006       -4.31628584387793        0.95037594311931
C           -5.60745718147401       -3.22016288584787        0.69955890760226
C           -5.66835329876739       -2.45292227771671       -0.45970318549186
C           -4.75355940938387       -1.44680546754717       -0.71021113209046
C           -4.83308279051592       -0.67980702712128       -1.99066875349141
C           -3.75364640773955       -1.14047572118645        0.24353413671779
B           -2.80099152304581        0.08518474013900        0.02691960949173
C           -1.28131323504949       -0.16386575804643        0.00257083649730
C           -0.74747463523121       -1.45327672533164       -0.22428583029402
C            0.60054716621704       -1.67753677856498       -0.25037376418512
C            1.51590173157172       -0.62480668922313       -0.03254441881416
C            2.91347791847077       -0.85566934252333       -0.04598681551893
N            3.37814726957939       -2.13124722158104       -0.27815607831865
C            4.66750309243236       -2.23666188415666       -0.27395236990940
Cl           5.28717756655639       -3.83358467074045       -0.56808182838059
N            5.58486150460668       -1.31919325921428       -0.07922682475236
C            5.05649350727979       -0.07972354505528        0.14817296518837
C            5.98728167785840        1.01271923154571        0.38181789582947
C            7.36429822232509        0.78069179362318        0.36954997686977
C            8.24556214236398        1.81987790077225        0.59491499897497
C            7.76833116967640        3.09972842322306        0.83578055115257
C            6.40132051390353        3.33803101877914        0.84893984475467
C            5.51426093448244        2.30492536918592        0.62424968921929
N            3.76899749606336        0.15644944664614        0.16522277059839
C            0.99193828464031        0.66581783044534        0.20052210835513
C           -0.35656541235438        0.88602143735949        0.20789483303552
C           -3.31973841030875        1.55166198535645       -0.16634154438383
C           -3.02741648298275        2.28746528885138       -1.33537857292895
C           -2.12287574782630        1.75050134158803       -2.40261000667440
C           -3.60229217673984        3.53331155240515       -1.53288698680596
C           -4.43154420846530        4.11326404680719       -0.58185581826970
C           -5.03199154367348        5.46728971539829       -0.77593331746503
C           -4.69198527295180        3.40092785586820        0.58896767044081
C           -4.13818179338189        2.15760863497884        0.81821571350862
C           -4.41659981903405        1.44993345442684        2.10560397964373
C           -3.67207343743981       -1.94011656461924        1.40511550038267
C           -2.61033773864184       -1.72448405780833        2.44095916744530
C           -4.60436728476401       -2.93946893747734        1.62314621691661
H           -6.12794993754670       -5.13945706024428        1.49859152436960
H           -7.41467608611782       -3.93954794650959        1.55592042910412
H           -7.00189054242213       -4.69840540726951        0.01920124946975
H           -6.43902755414746       -2.66415804603491       -1.18757082708529
H           -5.69867971788167       -0.98861505469242       -2.57382223578892
H           -4.90546765433721        0.38604344339069       -1.78550426895913
H           -3.93720124022151       -0.84290577162835       -2.58370695591439
H           -1.42356686491299       -2.27861642259302       -0.40179022610926
H            0.99642602130258       -2.66463259948454       -0.43904736183860
H            7.71548252084794       -0.21970289049570        0.17729386972854
H            9.30755738730704        1.63500420402934        0.57949943110827
H            8.45772392914979        3.91204578094780        1.01003060528224
H            6.02649936330405        4.33541750854732        1.03706553383681
H            4.44623326477220        2.47320695326660        0.63288876602514
H            1.68551895600543        1.47321961617419        0.37632824843631
H           -0.72900673225186        1.88149362706820        0.40143840964644
H           -2.05422291726707        0.66609533929951       -2.35797354012094
H           -1.11161964713324        2.14247723669330       -2.26628220576402
H           -2.46819670031683        2.05414437582443       -3.38482452023655
H           -3.37434453785279        4.07359018561201       -2.43939030957873
H           -4.51496267807031        5.99690855253726       -1.60963308184414
H           -4.93599392897512        6.07353033474122        0.13038225114117
H           -6.08431311024450        5.37295761998209       -1.03086665635958
H           -5.33230715435223        3.84396808527875        1.33955353651558
H           -4.84293324611677        0.46186160152138        1.90519379444674
H           -5.12263372986050        2.01355811867761        2.71341666057272
H           -3.50393537340694        1.30473156421843        2.66769652821837
H           -3.00833561113767       -1.90649505024436        3.43940894390264
H           -1.78791192744145       -2.41992823500358        2.27911843008315
H           -2.20420290252466       -0.71958737106796        2.39177686336262
H           -4.54329437359242       -3.52764821394590        2.53102131312544
