  89
 
 C         -6.7262418682       -3.1899096593        1.5727124498
 C         -5.7993664383       -2.3719263300        2.1980074507
 C         -4.5731444466       -2.1300002433        1.6120432893
 C         -4.2583397076       -2.7007499934        0.3782176420
 N         -3.0246259671       -2.4370498249       -0.2246893397
 C         -2.3508929795       -3.4411518385       -0.9220510254
 C         -2.4117273188       -4.7657561456       -0.4856942459
 C         -1.7421340241       -5.7571471886       -1.1752800805
 C         -0.9972136181       -5.4487797767       -2.3020874855
 C         -0.9311816902       -4.1352530609       -2.7384028116
 C         -1.6032504990       -3.1374078026       -2.0609416105
 C         -2.4815346216       -1.1479188289       -0.1305359701
 C         -1.1162143085       -0.9670452345        0.0076822078
 C         -0.5483703518        0.3246848788        0.0794959381
 C          0.8663122868        0.5122875633        0.1772636593
 C          1.4885169584        1.7455452198       -0.1802263513
 C          2.8336134858        1.9056618105       -0.1425405724
 C          3.7060452252        0.8405773418        0.2538018282
 C          5.0835062177        1.0710570613        0.2256296230
 N          5.6014476811        2.3144824957        0.1018432879
 C          6.9230911763        2.1965109770        0.2511530179
 C          7.9235608583        3.1805265891        0.2222402464
 C          9.2305818546        2.7733832283        0.3589576409
 C          9.5684657932        1.4256396608        0.5139858692
 C          8.5997427841        0.4297627067        0.5534151897
 C          7.2834740516        0.8243374171        0.4416177680
 N          6.1019636819        0.1220913752        0.4070625371
 C          6.0143298461       -1.2717064764        0.3199904954
 C          6.6422225371       -2.0701232556        1.2726101022
 C          6.5816812423       -3.4471245001        1.1653986430
 C          5.8969539171       -4.0379201121        0.1160952621
 C          5.2713568691       -3.2438925536       -0.8327016564
 C          5.3320218551       -1.8676566250       -0.7407282246
 C          3.0814892202       -0.3695431211        0.6884068644
 C          1.7333674112       -0.5194216450        0.6406055830
 C         -1.4360927287        1.4215186380        0.0596467783
 C         -2.8013993369        1.2421379989       -0.0744349098
 N         -3.6645743319        2.3449171485       -0.1021684219
 C         -3.2754188261        3.5297650641       -0.7307053428
 C         -2.4788303939        3.4976618349       -1.8764597621
 C         -2.0886660399        4.6737167071       -2.4854605547
 C         -2.4892073382        5.8971612843       -1.9724833190
 C         -3.2846171723        5.9349780590       -0.8387347645
 C         -3.6742425293        4.7648389503       -0.2173767772
 C         -4.9220860543        2.2446425405        0.4998441126
 C         -5.0754410702        1.5386461601        1.6938212666
 C         -6.3212706584        1.4190655748        2.2761190839
 C         -7.4297865108        2.0054729807        1.6874192381
 C         -7.2817602397        2.7164031853        0.5072353363
 C         -6.0411567991        2.8354717783       -0.0875860225
 C         -3.3364782865       -0.0445056952       -0.1923940800
 C         -5.1943154783       -3.5253454779       -0.2462404422
 C         -6.4153359814       -3.7671656997        0.3520521642
 H         -7.6835747526       -3.3782115118        2.0341131093
 H         -6.0293248915       -1.9280233880        3.1550447325
 H         -3.8439190274       -1.5062654332        2.1068547009
 H         -2.9796583535       -5.0071363390        0.4008491512
 H         -1.7949184255       -6.7771716487       -0.8242075267
 H         -0.4721848131       -6.2261064265       -2.8359020539
 H         -0.3577587053       -3.8860711345       -3.6189812903
 H         -1.5590425219       -2.1166087327       -2.4104281169
 H         -0.4792166735       -1.8365118204        0.0288199209
 H          0.8754696547        2.5607039127       -0.5338018463
 H          3.2977887307        2.8328016761       -0.4381409891
 H          7.6559003716        4.2165261903        0.0937172244
 H         10.0223601436        3.5081793015        0.3408822860
 H         10.6086292189        1.1498638333        0.6036720358
 H          8.8751000243       -0.6090528598        0.6577225909
 H          7.1561806492       -1.6055877043        2.1010370675
 H          7.0664131225       -4.0619603113        1.9095289173
 H          5.8499298524       -5.1136104641        0.0380307778
 H          4.7390774671       -3.7005041730       -1.6539670466
 H          4.8519747060       -1.2427394767       -1.4790773767
 H          3.6868651525       -1.1586920905        1.1066387169
 H          1.3027530369       -1.4357298149        1.0161127355
 H         -1.0568967045        2.4221780445        0.1895712413
 H         -2.1742579841        2.5454550944       -2.2848813054
 H         -1.4726993080        4.6344541650       -3.3716155368
 H         -2.1827243229        6.8140268439       -2.4521356731
 H         -3.5964096041        6.8839319906       -0.4281518991
 H         -4.2812892514        4.7978311872        0.6754298448
 H         -4.2082432830        1.0972802270        2.1614251583
 H         -6.4264012188        0.8737487581        3.2020410898
 H         -8.4022202151        1.9113781997        2.1460417077
 H         -8.1413798117        3.1742835287        0.0405682323
 H         -5.9297508779        3.3778211290       -1.0150954533
 H         -4.3957998240       -0.1831786806       -0.3406780555
 H         -4.9588269539       -3.9650033936       -1.2044252298
 H         -7.1334351200       -4.4038011080       -0.1433796579
