  85
 
 C         -5.4687389881       -3.1204799868        4.3882425240
 C         -4.4227429575       -2.0332146036        4.1698875881
 C         -5.0616218836       -0.6647229922        3.9399941161
 C         -4.0185670286        0.4157454357        3.6602853706
 C         -4.6580107863        1.7942907181        3.5092707225
 C         -3.6536783745        2.8892943773        3.1196173216
 N         -3.1768722100        2.7616012306        1.7604669208
 C         -1.9501280792        2.1708948970        1.4578646274
 C         -1.0971093823        1.6414934624        2.4224232680
 C          0.2301292919        1.0602938759        2.1150952163
 C          0.5383222039        0.9061122767        0.6528968050
 C          1.7038080392        0.2074234324        0.3319326032
 C          2.0965169672       -0.2169359340       -1.0408412200
 C          3.5624588097       -0.5449940718       -1.1586102391
 C          4.6398929953        0.2949575504       -1.0045113557
 C          5.9342075360       -0.2161260313       -1.1504462068
 C          7.0990604802        0.6648410441       -0.9903376769
 C          7.1272110645        1.6259973334        0.0207697360
 C          8.2178882174        2.4593762624        0.1812140534
 C          9.2861867786        2.3263791958       -0.6859225881
 F         10.3640526285        3.1453069423       -0.5360873749
 C          9.2935438024        1.3877846998       -1.7007972783
 C          8.1970943988        0.5587267672       -1.8444904371
 C          6.1063630221       -1.5704263493       -1.4460619793
 C          5.0265966496       -2.4212115202       -1.5924898402
 C          3.7449767829       -1.9085138371       -1.4483317468
 C          2.4443102228       -2.5382013917       -1.5440260116
 C          2.0710899605       -3.8514046026       -1.7964573443
 C          0.7270854060       -4.1707882859       -1.8354508557
 C         -0.2609928878       -3.2040452599       -1.6223529321
 C         -1.6849098088       -3.5631136110       -1.6628651039
 C         -2.5890196138       -2.9764756978       -0.7755822640
 C         -3.9311613153       -3.3035922367       -0.8047838497
 C         -4.3679022478       -4.2274896721       -1.7357925191
 F         -5.6892742422       -4.5549152955       -1.7708858125
 C         -3.5039037141       -4.8280154202       -2.6320161381
 C         -2.1642017307       -4.4908811283       -2.5885289588
 C          0.1199745021       -1.8844045916       -1.3622854860
 C          1.4557667404       -1.5616873979       -1.3332938207
 C         -0.3341989510        1.4496740799       -0.2642031121
 C         -1.5454589847        2.0915611808        0.1211372410
 O         -2.2908519358        2.5866479672       -0.9171094310
 C         -3.5027050745        3.1433429870       -0.6107193159
 C         -4.2506118294        3.6182937583       -1.6737234403
 C         -5.4945026190        4.1950020759       -1.4540110257
 C         -5.9757439159        4.2793274752       -0.1660427931
 C         -5.2266547115        3.8005052687        0.9043275322
 C         -3.9725717936        3.2297073123        0.7123335611
 H         -4.9910566852       -4.0830741937        4.5581515420
 H         -6.0883628873       -2.8870934868        5.2518962056
 H         -6.1163548569       -3.2091615376        3.5179354008
 H         -3.7666621105       -1.9827980228        5.0423644834
 H         -3.8042490063       -2.2943553860        3.3079541551
 H         -5.7533084625       -0.7267831404        3.0959409321
 H         -5.6437731244       -0.3879344824        4.8225931652
 H         -3.4773523365        0.1613737104        2.7464300070
 H         -3.2986070500        0.4355036599        4.4817272276
 H         -5.4401244221        1.7394026225        2.7496447093
 H         -5.1269950186        2.0803158400        4.4531061652
 H         -2.8019001110        2.8703927957        3.7979640370
 H         -4.1202663100        3.8729575853        3.2260282342
 H         -1.3702542477        1.6270662388        3.4617485190
 H          1.0201900181        1.6815225321        2.5706630029
 H          0.3246190667        0.0833757275        2.6124392028
 H          2.3102384022       -0.1787910225        1.1372699470
 H          1.7924118489        0.5294736152       -1.7812257241
 H          4.4919168717        1.3446198974       -0.7967980617
 H          6.2939467336        1.7087964728        0.7017826680
 H          8.2508926865        3.2008780152        0.9643647584
 H         10.1439956136        1.3175799531       -2.3611705520
 H          8.1842463437       -0.1663458878       -2.6439760219
 H          7.1082938517       -1.9640421598       -1.5367228386
 H          5.1814742193       -3.4671663646       -1.8124318755
 H          2.8182368166       -4.6153320650       -1.9540001285
 H          0.4313646693       -5.1951908539       -2.0081225159
 H         -2.2333371627       -2.2684457372       -0.0425938588
 H         -4.6368173367       -2.8574734756       -0.1213815893
 H         -3.8830222308       -5.5402599366       -3.3484222586
 H         -1.4855012308       -4.9391786057       -3.2978541018
 H         -0.6291022212       -1.1226459208       -1.2081601438
 H         -0.1397591880        1.4129868418       -1.3239707307
 H         -3.8387848203        3.5279043395       -2.6669280917
 H         -6.0707321826        4.5654609745       -2.2873697903
 H         -6.9427393737        4.7182043639        0.0279249443
 H         -5.6500763655        3.8849773684        1.8902148726
