  128
 
 C         -8.6122574417       -2.1915945772        4.7586829149
 C         -7.7621109408       -3.1409164361        3.9027690817
 C         -8.6718082755       -4.1362330873        3.1685218502
 C         -6.8441776830       -3.9327943218        4.8375441819
 C         -6.9859243806       -2.3276290342        2.8801021761
 C         -5.6013463791       -2.3317043193        2.7928862531
 C         -4.9497022514       -1.5680899803        1.8461797623
 C         -5.6525463366       -0.7568811150        0.9580607171
 C         -7.0470192899       -0.7682659083        0.9964485862
 C         -7.6722892218       -1.5458594445        1.9593677725
 C         -7.8958583599        0.0059960837        0.0074546855
 C         -8.7712959958        1.0050621679        0.7856345842
 C         -8.7741537812       -0.9918081662       -0.7691240497
 C         -7.0477134410        0.7790238912       -0.9830985681
 C         -7.6736175438        1.5575946539       -1.9448153370
 C         -6.9878045055        2.3383509365       -2.8668197951
 C         -7.7646834582        3.1528834216       -3.8879686548
 C         -8.6180706083        2.2049521372       -4.7421965201
 C         -8.6713001195        4.1496829565       -3.1519244709
 C         -6.8473086288        3.9432551545       -4.8245651452
 C         -5.6030595564        2.3403171426       -2.7822198907
 C         -4.9507908594        1.5756847278       -1.8367663960
 C         -5.6531897937        0.7655220107       -0.9473411761
 N         -4.9695123264        0.0037917849        0.0047065376
 C         -3.5737473134        0.0027297719        0.0033821369
 C         -2.8424102509        0.5470907627        1.0663705956
 F         -3.5012967850        1.0991959960        2.0914228681
 C         -1.4568729074        0.5432705992        1.0652901049
 F         -0.7973240565        1.1190581278        2.0760480521
 C         -0.7357871733        0.0005564519        0.0006876206
 C          0.7357887591       -0.0005738553       -0.0007088156
 C          1.4577050374        0.5407296918       -1.0654668056
 F          0.7990391025        1.1172371675       -2.0763901294
 C          2.8432460564        0.5424309008       -1.0665460135
 F          3.5029767407        1.0932356379       -2.0917552734
 C          3.5737496192       -0.0027401327       -0.0033988159
 N          4.9695134092       -0.0038047204       -0.0047247567
 C          5.6513814448       -0.7657637585       -0.9578865426
 C          4.9472972698       -1.5761686522       -1.8457572498
 C          5.5977679679       -2.3409973105       -2.7922901291
 C          6.9823455837       -2.3389726915       -2.8795860341
 C          7.7572794792       -3.1536128580       -3.9021260262
 C          6.8381424364       -3.9446650520       -4.8364170226
 C          8.6658918857       -4.1498265207       -3.1677521588
 C          8.6084234218       -2.2056439980       -4.7585481663
 C          7.6699085407       -1.5579739992       -1.9590912318
 C          7.0458341944       -0.7792354353       -0.9963217476
 C          7.8958598854       -0.0060208683       -0.0075279685
 C          8.7727410813       -1.0049563083        0.7691933863
 C          8.7727117138        0.9916152545       -0.7859512881
 C          7.0489016059        0.7684569497        0.9829082985
 C          7.6759987592        1.5462297413        1.9444935259
 C          6.9913852949        2.3282554104        2.8663138356
 C          7.7695105405        3.1416780363        3.8873984895
 C          8.6783100389        4.1364717581        3.1513333680
 C          6.8533676560        3.9341652706        4.8234124125
 C          8.6207661712        2.1923638098        4.7422184388
 C          5.6066481029        2.3323886174        2.7816635011
 C          4.9532066941        1.5685666668        1.8363644044
 C          5.6543588077        0.7571050919        0.9471396015
 C          2.8444314574       -0.5468001499        1.0611304852
 F          3.5052625556       -1.0986126748        2.0850884053
 C          1.4588948045       -0.5429854772        1.0626770722
 F          0.8012665849       -1.1184840835        2.0748499766
 C         -1.4597234130       -0.5410462761       -1.0625454533
 F         -0.8029780075       -1.1178430424       -2.0745525411
 C         -2.8452642167       -0.5427415718       -1.0609957246
 F         -3.5069411726       -1.0938357068       -2.0847939176
 H         -9.1574055059       -2.7542389579        5.5136015454
 H         -9.3334320803       -1.6487942297        4.1539514321
 H         -7.9747861982       -1.4669075292        5.2605749756
 H         -9.2145234788       -4.7477833496        3.8862107251
 H         -9.3972570068       -3.6246048066        2.5420621313
 H         -8.0776125508       -4.7917929569        2.5353544371
 H         -6.2441060972       -4.6494881172        4.2817695472
 H         -7.4466553347       -4.4853733952        5.5557134146
 H         -6.1850887647       -3.2688426776        5.3917801738
 H         -5.0016755037       -2.9337389319        3.4545901037
 H         -3.8724445384       -1.6223277329        1.7987966299
 H         -8.7501624454       -1.5441607609        1.9890280153
 H         -9.4020761389        0.4904228438        1.5049431927
 H         -9.4134492902        1.5680774182        0.1143559530
 H         -8.1385297375        1.7070243280        1.3250611701
 H         -8.1433845596       -1.6946742305       -1.3097116430
 H         -9.4055079707       -0.4762566979       -1.4872756294
 H         -9.4158805651       -1.5539066276       -0.0966695390
 H         -8.7515460582        1.5575303693       -1.9724443063
 H         -9.1637413098        2.7684821215       -5.4960762147
 H         -9.3389810263        1.6633772443       -4.1360535353
 H         -7.9827842428        1.4791866114       -5.2452987801
 H         -8.0747762648        4.8043099680       -2.5199821011
 H         -9.3962963301        3.6392350215       -2.5239789165
 H         -9.2144831845        4.7620788514       -3.8685374281
 H         -6.1903669931        3.2782252507       -5.3800569117
 H         -7.4503006504        4.4967722512       -5.5415792582
 H         -6.2450059797        4.6590093958       -4.2699948212
 H         -5.0037246177        2.9414585433       -3.4450392048
 H         -3.8733641868        1.6282810229       -1.7914165964
 H          3.8699626424       -1.6288006944       -1.7983080670
 H          4.9971777720       -2.9423295226       -3.4537987311
 H          6.1798315561       -3.2800797027       -5.3908171303
 H          7.4397678204       -4.4983317336       -5.5544630706
 H          6.2372252526       -4.6603362760       -4.2802373444
 H          9.3921987445       -3.6389095068       -2.5417079132
 H          9.2075987795       -4.7623623297       -3.8853623358
 H          8.0710272167       -4.8043657819       -2.5341573631
 H          9.1527713907       -2.7692302309       -5.5133415306
 H          7.9717385096       -1.4803841970       -5.2606113614
 H          9.3303402817       -1.6634750060       -4.1541345415
 H          8.7477810576       -1.5578463065       -1.9888262930
 H          8.1409771045       -1.7067528310        1.3100086374
 H          9.4135572075       -1.5681704676        0.0968045712
 H          9.4049441252       -0.4901857513        1.4871578355
 H          8.1409399765        1.6943483033       -1.3255401462
 H          9.4027547153        0.4759080676       -1.5051416758
 H          9.4156643820        1.5538782993       -0.1148068753
 H          8.7539247560        1.5444646611        1.9721661977
 H          9.2223120153        4.7481540078        3.8679347061
 H          8.0832907506        4.7919458448        2.5188511246
 H          9.4026497657        3.6244241156        2.5239355062
 H          6.1950709608        3.2706097117        5.3790613739
 H          7.4572060214        4.4869018541        5.5403165104
 H          6.2525162166        4.6507645141        4.2683576449
 H          7.9838831594        1.4681035855        5.2454722741
 H          9.3406903636        1.6490625434        4.1364461019
 H          9.1674173127        2.7550856903        5.4959914095
 H          5.0082387938        2.9346225019        3.4443273498
 H          3.8758647315        1.6228391471        1.7909747078
