  47
 
 C          2.7988924131        4.1167316511       -1.1373615418
 C          1.5388995204        3.9861588319       -0.2887920379
 C          0.4955861137        3.0912830786       -0.9579353425
 C         -0.7575339865        2.8792995917       -0.1075296787
 C         -0.5524971120        1.8906423486        1.0568407775
 C         -0.3801036456        0.4858604839        0.5791621213
 C          0.8740545647       -0.1131855156        0.4436053506
 N          2.0999186348        0.4456966915        0.7022648294
 C          3.0997857440       -0.4521767683        0.4509288424
 C          4.4679759213       -0.3075182853        0.5663386552
 C          5.2626101304       -1.4023434717        0.2379599432
 C          4.6843839878       -2.6019272479       -0.1905918388
 C          3.3185982487       -2.7571953261       -0.3103343706
 C          2.4891639872       -1.6712954456        0.0093223851
 C          1.0947191679       -1.4488699558        0.0046793453
 C         -0.0134699200       -2.2641917492       -0.3399734852
 C         -1.2619086929       -1.6746896946       -0.2243683075
 N         -2.4723045382       -2.2562845849       -0.4976838282
 C         -3.4844800486       -1.3693663472       -0.2667811576
 C         -4.8460054642       -1.5450629109       -0.4154571939
 C         -5.6749405330       -0.4707375895       -0.1141855641
 C         -5.1274664493        0.7409491050        0.3204826904
 C         -3.7696070733        0.9261479129        0.4724331369
 C         -2.8958127685       -0.1377436991        0.1829510111
 C         -1.4941944227       -0.3391175800        0.2101534182
 H          2.5621403995        4.5603911843       -2.1021941758
 H          3.5333569973        4.7482373089       -0.6414498938
 H          3.2468954145        3.1407457137       -1.3154487705
 H          1.8072252630        3.5892107543        0.6932909614
 H          1.1080710963        4.9773776423       -0.1267898958
 H          0.2013260525        3.5573310202       -1.9016735541
 H          0.9373399663        2.1223745629       -1.2012207755
 H         -1.5564222082        2.4939919489       -0.7434556910
 H         -1.0828839602        3.8405231721        0.2977363058
 H          0.3084614079        2.2011805814        1.6512323498
 H         -1.4285992660        1.9349813223        1.7061881266
 H          2.2486841188        1.3962553251        1.0009327242
 H          4.9087657323        0.6208415678        0.8993708929
 H          6.3364746656       -1.3262285214        0.3152589845
 H          5.3345034961       -3.4307444421       -0.4356055646
 H          2.8936007492       -3.6919262235       -0.6434310226
 H          0.1152383816       -3.2798177515       -0.6761093682
 H         -2.5938506631       -3.2031297401       -0.8206391611
 H         -5.2520498110       -2.4871729293       -0.7542111622
 H         -6.7447183297       -0.5700952546       -0.2163395925
 H         -5.7972685761        1.5599387685        0.5448952906
 H         -3.3953896062        1.8814959508        0.8017139165
