  47
 
 C         -5.0499452371       -2.6896785483        0.0861879344
 C         -4.8609720716       -1.3629332078        0.4715019161
 C         -3.6183235182       -0.7841762148        0.4394815290
 C         -2.4863571319       -1.5284270576        0.0023890343
 C         -1.1757297418       -1.0435015611       -0.0789529838
 N         -0.1126289144       -1.8789067658       -0.1675225667
 C          0.9697433655       -1.1426246232       -0.0742802780
 C          2.3249638101       -1.5883341653       -0.0430924898
 C          2.6224885248       -2.9509943518       -0.0538759967
 C          3.9335125910       -3.3806327084        0.0201948524
 C          4.9462630942       -2.4396471917        0.1154958473
 C          4.6595176245       -1.0846337245        0.1199272917
 C          3.3462171555       -0.6128033278        0.0298925433
 C          3.0132812736        0.8044285567       -0.0116279468
 C          4.0016099328        1.7812523789       -0.0553115927
 C          3.7097738008        3.1318925576       -0.1370947441
 C          2.3793059962        3.5535876839       -0.2042490248
 C          1.3694121483        2.6347515061       -0.1575929563
 C          1.6366817197        1.2428867673       -0.0390637288
 C          0.6451643007        0.2654342924        0.0118229802
 N         -0.7310557789        0.3078408018        0.0089591849
 C         -1.5633473576        1.4316531254        0.0108661936
 C         -1.5253088129        2.3372070218        1.0729234098
 C         -2.3655571249        3.4330083723        1.0719594996
 C         -3.2490779609        3.6376822481        0.0221922818
 C         -3.2904932661        2.7371427759       -1.0312728764
 C         -2.4554270549        1.6373072763       -1.0429262629
 C         -2.6964126258       -2.8983017411       -0.3411833679
 C         -3.9461126389       -3.4515952936       -0.3061510298
 H         -6.0356256506       -3.1279686773        0.1086677130
 H         -5.7065690948       -0.7827616468        0.8127648236
 H         -3.4973281468        0.2258011698        0.7939206570
 H          1.8011438296       -3.6476452783       -0.1140127620
 H          4.1658358029       -4.4346884234        0.0110682738
 H          5.9753617385       -2.7611518569        0.1863714926
 H          5.4845724092       -0.3951205510        0.1993983147
 H          5.0410162623        1.4944743550       -0.0382980734
 H          4.5100573193        3.8553418044       -0.1665407294
 H          2.1509296800        4.6048105611       -0.2995355922
 H          0.3471537976        2.9650565410       -0.2362318979
 H         -0.8399563674        2.1661175348        1.8903949049
 H         -2.3367312110        4.1279047893        1.8980805938
 H         -3.9046438780        4.4950082893        0.0275383889
 H         -3.9760290871        2.8948150135       -1.8504067646
 H         -2.4834773416        0.9292601169       -1.8576773506
 H         -1.8356782341       -3.4708969630       -0.6460926428
 H         -4.0854398528       -4.4860683928       -0.5850930184
