  72
 
 C          6.7221965121       -3.3029806796       -1.0336161988
 C          7.8711864485       -2.5466346282       -0.7967316986
 N          7.8513563447       -1.2931706796       -0.4052903294
 C          6.6752919977       -0.6943549222       -0.2174563997
 C          5.4541499382       -1.3656901576       -0.4273290025
 C          5.4977207382       -2.7006252748       -0.8453291279
 C          4.1991591167       -0.6824630225       -0.2118900533
 N          3.0699016735       -1.3392527103       -0.4108518348
 C          1.9190131689       -0.6832002798       -0.2070085434
 C          0.6909392047       -1.3350141649       -0.4254751470
 C         -0.4992781169       -0.6793039603       -0.2301899107
 N         -1.7052737854       -1.3366135555       -0.4774071245
 C         -2.0991451797       -2.5359782470        0.0966355795
 C         -1.4019264706       -3.3781417996        0.9494427131
 C         -2.0512507622       -4.5070001018        1.4148173712
 C         -3.3641652732       -4.7923089494        1.0487440673
 C         -4.0678720832       -3.9473865919        0.2127335761
 C         -3.4359364247       -2.8081771864       -0.2676578043
 C         -3.8572782143       -1.7325855248       -1.1235396644
 C         -5.0361592391       -1.4589068292       -1.8034018526
 C         -5.0941316928       -0.3314522288       -2.5995764254
 C         -3.9866259381        0.4993213878       -2.7467133471
 C         -2.8029130260        0.2458847254       -2.0794397515
 C         -2.7587867890       -0.8530201076       -1.2356001721
 C         -0.4991973804        0.6796137669        0.2309785913
 N         -1.7051399502        1.3370614624        0.4781781979
 C         -2.7586372850        0.8536589094        1.2364889420
 C         -2.8027390313       -0.2450698697        2.0805600248
 C         -3.9864099861       -0.4982975140        2.7479932592
 C         -5.0938848964        0.3325018271        2.6007541637
 C         -5.0360109518        1.4596460515        1.8041309333
 C         -3.8572013779        1.7330915081        1.1240493267
 C         -3.4360368674        2.8082078880        0.2674737021
 C         -4.0682508157        3.9467949277       -0.2140353403
 C         -3.3647849496        4.7910335147       -1.0509404421
 C         -2.0517569491        4.5057718730       -1.4166562270
 C         -1.4021156232        3.3776003278       -0.9500848686
 C         -2.0991877864        2.5360068047       -0.0965922562
 C          0.6910617116        1.3352479242        0.4262256315
 C          1.9190901717        0.6833558419        0.2076999470
 N          3.0700503412        1.3393237004        0.4114054952
 C          4.1992395345        0.6824603147        0.2122748499
 C          5.4543250250        1.3655895188        0.4274958434
 C          5.4980866414        2.7005791660        0.8453089821
 C          6.7226454104        3.3028315726        1.0333758790
 C          7.8715322592        2.5463209720        0.7965047099
 N          7.8515257001        1.2928110127        0.4052350438
 C          6.6753794753        0.6941098644        0.2175564199
 H          6.7976156480       -4.3299285495       -1.3543098413
 H          8.8568681158       -2.9737462791       -0.9298876896
 H          4.5678007025       -3.2236020628       -1.0094231869
 H          0.7063726578       -2.3527722645       -0.7833978068
 H         -0.3877549194       -3.1610310237        1.2509604179
 H         -1.5275639383       -5.1799767895        2.0776613288
 H         -3.8360814295       -5.6850032593        1.4314802099
 H         -5.0897196235       -4.1613438942       -0.0608865865
 H         -5.8842280249       -2.1207346011       -1.7157582847
 H         -6.0034293335       -0.0974840244       -3.1328217622
 H         -4.0484077873        1.3576894601       -3.3990954824
 H         -1.9424599918        0.8811819292       -2.2250365503
 H         -1.9423007389       -0.8803932771        2.2261750226
 H         -4.0481675176       -1.3565182875        3.4005771932
 H         -6.0031148099        0.0987642589        3.1342158181
 H         -5.8841220091        2.1213911917        1.7162813387
 H         -5.0901813420        4.1607288641        0.0592937104
 H         -3.8370055951        5.6831140397       -1.4347299372
 H         -1.5282821666        5.1781631774       -2.0802605344
 H         -0.3878675533        3.1604562524       -1.2513289335
 H          0.7065508254        2.3530299749        0.7840866557
 H          4.5682407596        3.2236900532        1.0093928246
 H          6.7982076961        4.3298180462        1.3539183639
 H          8.8572738075        2.9733101881        0.9296439847
