  83
 
 C          6.4011877884        0.8614604692       -1.2157785565
 C          5.4794140151        0.8848919301        0.0174602254
 C          6.3160110529        0.9544256035        1.3083550672
 C          4.6045779018        2.1230359338       -0.0551875977
 C          5.1972473792        3.3779423679       -0.0837497027
 C          4.4520223170        4.5416769800       -0.1325744844
 C          3.0713256541        4.4613640775       -0.1456009625
 C          2.4558326133        3.2279506525       -0.1181735639
 C          3.2082747050        2.0506649961       -0.0823552740
 N          2.5607899907        0.8271564015       -0.0622561900
 C          1.1402148898        0.7865520564       -0.0333569666
 C          0.4070636069        0.9151869965       -1.2027197791
 C         -0.9738352061        0.8444053576       -1.1689718470
 C         -1.6470335703        0.6470010773        0.0297067445
 C         -3.1705199733        0.5064391640        0.0815438036
 C         -3.8076552021        1.3505802449        1.1763517693
 C         -3.1766191100        2.4518330555        1.7395740262
 C         -3.8218110043        3.2186684587        2.6954687211
 C         -5.1089763280        2.9036805713        3.0923084917
 C         -5.7552141728        1.8225379588        2.5166782030
 C         -5.1116400727        1.0570939325        1.5624958098
 C         -3.7773188390        0.9487684931       -1.2352711978
 C         -4.0422490780        2.2938254721       -1.4675628281
 C         -4.5629790175        2.7189761660       -2.6763152246
 C         -4.8169340619        1.8078788391       -3.6905429596
 C         -4.5382245008        0.4738354090       -3.4836359571
 C         -4.0211752242        0.0363761351       -2.2640898962
 C         -3.7402165467       -1.4042163913       -2.1032198529
 O         -3.6765179158       -2.1649151767       -3.0508352471
 C         -3.6093052715       -1.8640069746       -0.7072952577
 C         -3.7442684366       -3.2301325973       -0.4541028362
 C         -3.6935139940       -3.7148291125        0.8352686872
 C         -3.5101912480       -2.8272986646        1.8850115720
 C         -3.3671476677       -1.4739213081        1.6406148870
 C         -3.4110822820       -0.9689055241        0.3452866503
 C         -0.9004054934        0.5207185087        1.1972342577
 C          0.4771936187        0.6001412894        1.1719739172
 C          3.2635254858       -0.3630013808       -0.0170885007
 C          4.6604507653       -0.3938002975        0.0340611430
 C          5.3282214787       -1.6190249326        0.0908865623
 C          4.6759737688       -2.8321289204        0.0924983985
 C          3.2893639293       -2.8193205281        0.0204960083
 C          2.6027400236       -1.5971324173       -0.0381115661
 O          1.2485733220       -1.7932918323       -0.1218938665
 C          1.0545571597       -3.1367356657       -0.1149418889
 C         -0.1641145244       -3.7864848356       -0.1842031266
 C         -0.1432499321       -5.1689163072       -0.1580033838
 C          1.0531276913       -5.8766023308       -0.0667979319
 C          2.2689505205       -5.2245281771       -0.0004358392
 C          2.2726103570       -3.8360761154       -0.0245552443
 H          7.0621218963       -0.0002418677       -1.1926514712
 H          5.8020256660        0.8100830023       -2.1228178368
 H          7.0132952198        1.7578708371       -1.2594364888
 H          6.9277988904        1.8520056154        1.3255775625
 H          6.9727510382        0.0933712554        1.3938836929
 H          5.6574006731        0.9712986870        2.1746557184
 H          6.2736777621        3.4576063341       -0.0653571397
 H          4.9464577449        5.5007952131       -0.1553042269
 H          2.4704825345        5.3581751228       -0.1757747251
 H          1.3781765838        3.1685068167       -0.1235762808
 H          0.9210406846        1.0612678759       -2.1411456170
 H         -1.5201712979        0.9389477251       -2.0947163733
 H         -2.1763579372        2.7195515938        1.4315422622
 H         -3.3144113435        4.0690353286        3.1271384617
 H         -5.6092694198        3.5014897029        3.8394527420
 H         -6.7653232531        1.5762751334        2.8088597884
 H         -5.6241691241        0.2195981442        1.1106039572
 H         -3.8405680966        3.0194017563       -0.6939613710
 H         -4.7682846370        3.7684362643       -2.8278900296
 H         -5.2218143679        2.1412229272       -4.6341224455
 H         -4.7088082095       -0.2632941929       -4.2542733240
 H         -3.8919599195       -3.8873914527       -1.2984098927
 H         -3.7987175339       -4.7717568357        1.0274803300
 H         -3.4791481250       -3.1911464688        2.9013650870
 H         -3.2427617711       -0.8008278935        2.4755140535
 H         -1.3955365265        0.3631054037        2.1424869754
 H          1.0471029740        0.4991672099        2.0839596222
 H          6.4061465867       -1.6210316219        0.1359212550
 H          5.2201533075       -3.7615068188        0.1401874046
 H         -1.0834032748       -3.2291413337       -0.2584322606
 H         -1.0759066533       -5.7096913108       -0.2122741212
 H          1.0260781240       -6.9560668171       -0.0499625385
 H          3.1948524431       -5.7749174437        0.0678248136
