  57
 
 O          5.2984456446        2.3700937132       -0.0082200926
 C          5.8412992123        1.2325770308       -0.0416142470
 C          7.2642177281        1.1043672536       -0.3005039854
 C          7.9603773113        2.2749706041       -0.6764575837
 C          9.2887220919        2.2218511111       -1.0175667287
 C          9.9853429757        1.0153425947       -0.9999941299
 C          9.3287886454       -0.1386626313       -0.6071513419
 C          7.9953160231       -0.0801944906       -0.2580715564
 S          7.2637409330       -1.5673168917        0.4045214256
 O          7.6823420054       -2.7123511832       -0.3590224427
 O          7.5177745181       -1.5997425323        1.8218154145
 C          5.5248302314       -1.2724072072        0.1542897718
 C          4.6845529891       -2.3670880781        0.1545128503
 C          3.3148394026       -2.1893709811        0.1212809799
 C          2.7829436695       -0.8884115754        0.1082012476
 C          1.3333009850       -0.6683052871        0.0869893305
 C          0.4935168077       -1.4847726022       -0.6724603777
 C         -0.8678349113       -1.2732963117       -0.6996118125
 C         -1.4339558471       -0.2350751628        0.0423985705
 N         -2.8171441168       -0.0161595560        0.0173313686
 C         -3.6918775272       -1.1025460206       -0.0157456100
 C         -3.3857948944       -2.2768533816        0.6771549597
 C         -4.2457211530       -3.3546746889        0.6427242099
 C         -5.4233663264       -3.2666425065       -0.0842117721
 Br        -6.6123131358       -4.7508140914       -0.1305630762
 C         -5.7451392523       -2.1102124778       -0.7784897860
 C         -4.8818001311       -1.0349645403       -0.7452833709
 C         -3.3125451064        1.2884613225        0.0250205167
 C         -2.6317720672        2.3066477418       -0.6477316885
 C         -3.1162538186        3.5980138211       -0.6379888406
 C         -4.2899259119        3.8826506149        0.0435516909
 Br        -4.9632410581        5.6613813841        0.0540296757
 C         -4.9796495214        2.8863383866        0.7178739185
 C         -4.4911661439        1.5964263198        0.7095911113
 C         -0.6010834990        0.5832980085        0.8079381819
 C          0.7596302226        0.3705733762        0.8231463004
 C          3.6366858273        0.1971102450        0.0922376447
 C          5.0373964798        0.0345008494        0.0825270920
 H          7.4017348147        3.1990294844       -0.6937255802
 H          9.7973203051        3.1295958186       -1.3077484431
 H         11.0274455637        0.9779567831       -1.2754102516
 H          9.8302309682       -1.0923999155       -0.5575296315
 H          5.1276837231       -3.3495406310        0.1996288606
 H          2.6585036505       -3.0444001317        0.1513741231
 H          0.9185990067       -2.2752250974       -1.2716433081
 H         -1.5026293091       -1.9000268648       -1.3085446061
 H         -2.4741629414       -2.3349214728        1.2519940468
 H         -4.0088239840       -4.2569501497        1.1844762398
 H         -6.6597583989       -2.0560323447       -1.3479454278
 H         -5.1207129640       -0.1386687360       -1.2973783833
 H         -1.7255371238        2.0773782493       -1.1871359181
 H         -2.5905263936        4.3797191883       -1.1635269213
 H         -5.8865670272        3.1210994184        1.2527787349
 H         -5.0161842387        0.8212320200        1.2468939185
 H         -1.0332628176        1.3759912777        1.4005156581
 H          1.3886297183        0.9969287227        1.4362782282
 H          3.2603326510        1.2083117037        0.0426033461
