76
 xtb: 6.7.1 (edcfbbe)
C            4.83922057951081        4.12257268422773       -0.80914337131666
C            3.70656896569078        3.99432327706516       -0.02160364699750
C            3.15499382309544        2.74692970839209        0.20659939387488
C            3.72477466555881        1.60854080409457       -0.35422058411644
C            3.16187282010059        0.23421535930226       -0.04274758046076
C            1.64774245444995        0.21180784013458        0.02167854990866
C            0.89154389052676        0.95227509088392       -0.88231976573958
C           -0.48672474946247        0.87579296793854       -0.87072446477590
C           -1.15985492980742        0.05957593951527        0.03635577474516
Si          -3.05248860033676       -0.01452011796927        0.03339274815941
C           -3.64866897877960       -1.51282313587843        1.03201241403639
C           -4.03135112024961       -2.69908609946723        0.41335327657021
C           -4.45030580362184       -3.78942880983338        1.15562699113884
C           -4.49454742129428       -3.71152905707386        2.53785634126747
C           -4.11857722039472       -2.53784554185614        3.17095317289158
C           -3.70095812357813       -1.45201438627239        2.42251285479925
C           -3.62627553500917       -0.17606353688836       -1.77304329450377
C           -4.77042023940733        0.46453414436743       -2.23900520172118
C           -5.18859381266545        0.31772466085073       -3.55024705182021
C           -4.46536875253129       -0.47769740794775       -4.42389370981433
C           -3.32078307957199       -1.11936479361749       -3.97892920688396
C           -2.90829930211894       -0.96724002174045       -2.66720196985469
C           -3.77644831302781        1.55419138380963        0.81089580700733
C           -3.00389744846168        2.69515410605066        1.01551517312340
C           -3.55360603036886        3.83938221873687        1.56721261261831
C           -4.89412207520495        3.86349996184165        1.92416013499661
C           -5.67707709040798        2.73457089859179        1.73349808034604
C           -5.11987189144152        1.59334206674230        1.18491311265519
C           -0.39497718507097       -0.68603879532027        0.92698983955143
C            0.98605961557986       -0.62048531071030        0.91643529015136
C            3.83584356482072       -0.25080446833775        1.22663287818705
C            3.83589383641056        0.30166784774200        2.46911608417909
C            4.55731385640834       -0.32484487522239        3.50324569972447
C            5.28710070771000       -1.51093628732727        3.25711222725424
C            5.31824212786704       -2.08530320055100        2.02369753969069
C            4.58614273571123       -1.47060200882139        0.95203204085413
C            4.42564811373026       -1.82002502250835       -0.37131822454455
C            4.92787870794477       -2.92460394356134       -1.13946019778655
C            4.59163680036443       -3.01925056181729       -2.45451564254380
C            3.75870063393719       -2.05982321015369       -3.07706996540893
C            3.25172594498830       -0.96839305015697       -2.34756853734630
C            3.58053664156609       -0.83350265961414       -1.03469145294321
C            4.86970244431628        1.74430661265182       -1.12960423353751
C            5.41923322335223        2.99321537103197       -1.36118982188402
H            5.26206719219291        5.09296059240923       -1.00887778138507
H            3.24028233902997        4.86985354161788        0.39161525424211
H            2.26118304439718        2.65481026042797        0.80173450584310
H            1.39057348711874        1.58272654231572       -1.60621685666257
H           -1.05443277467121        1.43908058762745       -1.60116331913970
H           -4.01597494799468       -2.76094823739704       -0.68058662106731
H           -4.75568669419388       -4.70308220465803        0.63344482669297
H           -4.81902564914284       -4.57653387712458        3.09818479033399
H           -4.13660675939536       -2.49490235183024        4.23625562405386
H           -3.39816350506767       -0.55586997840870        2.91587741660560
H           -5.35388190910438        1.08636539658537       -1.54321601939609
H           -6.10969766927650        0.84121803176398       -3.86914287990393
H           -4.82090894233452       -0.55212821024497       -5.44793865974272
H           -2.76975840711754       -1.69364614417953       -4.68175848848827
H           -2.01816224826930       -1.44296788917642       -2.35424807522947
H           -1.97394172565419        2.70121205280974        0.65907343714611
H           -2.94198500841507        4.73385140077756        1.64664449551290
H           -5.30010623888776        4.75207171999373        2.37662382096162
H           -6.67880984498672        2.71910408438777        2.11806393594398
H           -5.70286230965804        0.68803941359396        1.13584366793162
H           -0.89221068512553       -1.33338641467302        1.63373250754235
H            1.55580892556826       -1.21573265397168        1.61419799979915
H            3.26954892128578        1.21834375091288        2.67273121960382
H            4.53696520589118        0.12941974949057        4.49880137130374
H            5.82508851737625       -1.92876715230036        4.09782691914908
H            5.88813996464260       -2.96682759416237        1.85949476276978
H            5.57119096629246       -3.65862618569810       -0.63073308830418
H            4.98387518647591       -3.85732446876474       -3.02000743039938
H            3.53389246273468       -2.19237017447161       -4.10620116684205
H            2.62653318471408       -0.26890531273659       -2.83933252696304
H            5.33452656717984        0.85872784089989       -1.55536557199827
H            6.30493829330885        3.07526426174187       -1.98019818614068
