  79
 
 C          7.5253201072       -1.4553079146       -3.6815824566
 C          6.7035870512       -2.1958338005       -2.8477572035
 C          6.1881017808       -1.6360134508       -1.6952244102
 C          6.4836744304       -0.3139623263       -1.3624337486
 N          5.9633000107        0.2555240218       -0.1954201486
 C          6.7321746715        1.1535416477        0.5532870812
 C          8.1085752337        0.9708530494        0.6849218836
 C          8.8619085180        1.8648160643        1.4205463685
 C          8.2594202959        2.9459510797        2.0427463977
 C          6.8917455918        3.1286719078        1.9199570502
 C          6.1309118595        2.2454114432        1.1793685305
 C          4.6724255786       -0.0771181375        0.2272950794
 C          3.6446278399       -0.2529571430       -0.6995382150
 C          2.3729998237       -0.5796422835       -0.2786798549
 C          2.0855151655       -0.7487959266        1.0744250504
 C          0.7313109916       -1.1062046164        1.5180419066
 C          0.5385381949       -2.0525911593        2.5236989247
 C         -0.7377208762       -2.3768347475        2.9439623398
 C         -1.8431768586       -1.7773184065        2.3686659825
 C         -1.6705618705       -0.8437158431        1.3486509272
 C         -2.7836409296       -0.1556142894        0.7122249937
 N         -2.7313712827        1.1008215572        0.3486402270
 C         -3.9494983423        1.3902696309       -0.1784903807
 C         -4.4103257857        2.6420547920       -0.6729401806
 C         -3.5899304652        3.7748317327       -0.6534551003
 C         -4.0656883674        4.9823319565       -1.0993712157
 C         -5.3751462554        5.0710216742       -1.5677475358
 C         -6.1879571080        3.9620697011       -1.5976220654
 C         -5.7355185661        2.7076715842       -1.1601728929
 C         -6.5564009391        1.5101984837       -1.2117295901
 C         -7.8434309424        1.5258912188       -1.7677206470
 C         -8.6114660871        0.3898421269       -1.8634641195
 C         -8.1117260661       -0.8296505586       -1.4181865832
 C         -6.8588861003       -0.8875165562       -0.8595789936
 C         -6.0712586179        0.2648414028       -0.7246506200
 C         -4.7681316466        0.2624353325       -0.1517977217
 N         -4.0078457263       -0.7248345789        0.4350576202
 C         -4.3589810936       -2.0585958439        0.7191649531
 C         -3.6574049834       -3.0970315714        0.1184124653
 C         -3.9770895122       -4.4071105036        0.4259027284
 C         -4.9913982004       -4.6843437457        1.3269914225
 C         -5.6894891622       -3.6478817435        1.9260764736
 C         -5.3753215351       -2.3347753128        1.6292329242
 C         -0.3821070745       -0.5091807796        0.9402875603
 C          3.1160457548       -0.5727409401        1.9957581378
 C          4.3888316908       -0.2391237204        1.5836002119
 C          7.3062710054        0.4291702216       -2.2089337244
 C          7.8236590159       -0.1425507367       -3.3548332893
 H          7.9300163189       -1.8977744604       -4.5791405867
 H          6.4690333886       -3.2217539000       -3.0914655401
 H          5.5560822787       -2.2192694151       -1.0414709736
 H          8.5798282957        0.1230496943        0.2093914790
 H          9.9268349988        1.7106898481        1.5154531758
 H          8.8513428014        3.6407889820        2.6189338623
 H          6.4135594607        3.9714560362        2.3972157467
 H          5.0662397670        2.3962104239        1.0767576173
 H          3.8526559291       -0.1270718009       -1.7521016755
 H          1.5908478051       -0.7181729708       -1.0103850559
 H          1.3930113655       -2.5415453231        2.9680235793
 H         -0.8760816504       -3.1030306363        3.7318489252
 H         -2.8303736492       -2.0199203167        2.7308640208
 H         -2.5866828213        3.6640001131       -0.2722871997
 H         -3.4369281451        5.8603922975       -1.0842749348
 H         -5.7572736687        6.0215451684       -1.9115382667
 H         -7.1949285926        4.0804627281       -1.9653041721
 H         -8.2526632356        2.4489101440       -2.1454825777
 H         -9.5988365826        0.4417872019       -2.2982754027
 H         -8.7031687714       -1.7281345887       -1.5153592692
 H         -6.4684359151       -1.8390212503       -0.5349984602
 H         -2.8665230941       -2.8696461933       -0.5807413809
 H         -3.4323219150       -5.2132793641       -0.0417177831
 H         -5.2382987928       -5.7080617644        1.5641461138
 H         -6.4787960542       -3.8618181749        2.6310241310
 H         -5.9105289647       -1.5183799635        2.0922099773
 H         -0.2654147958        0.2440539159        0.1765660724
 H          2.9124211179       -0.6843926418        3.0506417013
 H          5.1768066055       -0.1039864318        2.3101434410
 H          7.5327415435        1.4561402261       -1.9621600360
 H          8.4583627553        0.4447984244       -4.0020990713
