90

N    -11.803607   -2.287276    0.427754
C    -10.807222   -1.717298    0.252412
C     -9.591350   -0.989343    0.027934
N     -8.438894   -1.677544    0.306740
C     -7.332687   -0.952707    0.082179
C     -7.340959    0.368679   -0.388387
N     -8.456001    1.059913   -0.667344
C     -9.599665    0.337258   -0.444634
C    -10.823974    1.029291   -0.728048
N    -11.826298    1.571276   -0.951673
C     -5.962576    0.801229   -0.496315
C     -5.410878    1.994829   -0.896577
C     -4.018795    2.107292   -0.851865
C     -3.167710    1.037834   -0.426451
C     -1.743033    1.379389   -0.284970
C     -0.831010    1.231595   -1.337337
C      0.473313    1.741386   -1.232274
C      0.893122    2.428765   -0.079972
N      2.177624    3.085591   -0.016096
C      2.293796    4.382039    0.613783
C      1.319969    5.376124    0.413549
C      1.438645    6.630021    1.018463
C      2.533347    6.910644    1.832034
C      3.510427    5.940819    2.041342
C      3.393046    4.686876    1.435545
C      3.344839    2.494336   -0.617363
C      3.646650    1.136386   -0.436506
C      4.806869    0.585973   -0.989648
C      5.669757    1.373893   -1.746941
C      5.381491    2.720879   -1.945335
C      4.231226    3.276722   -1.382010
C     -0.007365    2.516892    0.994152
C     -1.304016    2.006664    0.891471
C     -3.738240   -0.235192   -0.058764
C     -3.151074   -1.491927    0.336308
C     -1.710703   -1.772668    0.272097
C     -1.199965   -2.493131   -0.817974
C      0.143432   -2.871933   -0.864524
C      1.029122   -2.525563    0.167568
N      2.413810   -2.939789    0.131055
C      3.079039   -3.313469    1.357343
C      2.440755   -4.134824    2.303646
C      3.083109   -4.495740    3.490299
C      4.374202   -4.041645    3.750574
C      5.024669   -3.229082    2.825013
C      4.382941   -2.869594    1.637249
C      3.125791   -3.024481   -1.125061
C      4.054982   -4.053853   -1.364224
C      4.747947   -4.133908   -2.575990
C      4.525966   -3.184912   -3.572573
C      3.609523   -2.159203   -3.359961
C      2.914602   -2.082143   -2.149123
C      0.515308   -1.786829    1.248614
C     -0.838193   -1.430459    1.309140
C     -3.987266   -2.589615    0.714207
C     -5.382213   -2.520030    0.687122
C     -5.948965   -1.342510    0.260355
C     -5.142819   -0.257539   -0.096060
H     -6.030409    2.828796   -1.211664
H     -3.569720    3.063109   -1.127455
H     -1.139609    0.752476   -2.263880
H      1.139073    1.650328   -2.087442
H      0.468450    5.184306   -0.234545
H      0.677704    7.387336    0.848274
H      2.625603    7.886676    2.302081
H      4.364909    6.156091    2.676680
H      4.159243    3.938838    1.622387
H      2.994415    0.503450    0.160835
H      5.037285   -0.463227   -0.830594
H      6.565882    0.936185   -2.178992
H      6.050064    3.340673   -2.534699
H      4.020471    4.329758   -1.551913
H      0.288148    3.011665    1.916741
H     -1.987532    2.137241    1.728388
H     -1.857802   -2.790668   -1.632704
H      0.484417   -3.468085   -1.707284
H      1.439258   -4.512807    2.110916
H      2.574615   -5.133710    4.208052
H      4.873592   -4.321346    4.674346
H      6.031037   -2.870774    3.026379
H      4.902702   -2.223982    0.934703
H      4.233835   -4.818519   -0.609989
H      5.458420   -4.940457   -2.739012
H      5.067340   -3.244578   -4.513430
H      3.439453   -1.409541   -4.129281
H      2.223055   -1.255790   -1.999922
H      1.168879   -1.477792    2.061077
H     -1.202580   -0.880936    2.173410
H     -3.522845   -3.530361    1.014133
H     -5.991190   -3.372748    0.970454
