70
 xtb: 6.7.1 (edcfbbe)
C            6.37465557292112       -0.04533550801493        0.08573510703274
C            5.00540134226298       -0.02047449938794        0.79119660481571
C            5.19504181316054       -0.01468635958848        2.31996759947420
C            4.23430842941850       -1.26884129151706        0.40174390569778
C            4.75596786706657       -2.51953397677690        0.70443304852591
C            4.09778071753364       -3.69104315144428        0.37560946586619
C            2.88034653651440       -3.62241859350385       -0.27784702135140
C            2.34079219472867       -2.39303782863585       -0.59410471272611
C            3.00348766427115       -1.20791524289090       -0.26096379842266
N            2.43428101659077        0.01188507653724       -0.59349142976029
C            1.20098892766244        0.02530728461987       -1.30383264525509
C            1.20025903064180        0.04742740707280       -2.69392772022886
C           -0.00010084082996        0.05935957556617       -3.38324292170825
C           -1.20041736920384        0.04751899143409       -2.69384975785085
C           -1.20105888688604        0.02540018830238       -1.30375525476758
N           -2.43430986046537        0.01208660414232       -0.59334054480202
C           -3.04000033248110        1.21577272141918       -0.27372449284092
C           -2.41033791776495        2.41657763948855       -0.61465464110731
C           -2.98717746935226        3.63251105212351       -0.31234802220496
C           -4.20844352037606        3.67147595341929        0.33640045856372
C           -4.83178038369483        2.48429630200140        0.67680721626774
C           -4.27265447719571        1.24671031765740        0.38758749783628
C           -5.00539752892147       -0.02002995021041        0.79141011950951
C           -6.37459742416244       -0.04463341999422        0.08583196303602
C           -5.19515897770176       -0.01435099336466        2.32016494899471
C           -4.23445957229686       -1.26847136387915        0.40188860560890
C           -4.75627132791611       -2.51911655936799        0.70451223653764
C           -4.09824224040955       -3.69068949409834        0.37559881810098
C           -2.88081764782225       -3.62217947202307       -0.27788727104044
C           -2.34111625691266       -2.39284806208695       -0.59408667760787
C           -3.00365314940878       -1.20766188745593       -0.26085653420801
C           -0.00001257420160        0.01545734877223       -0.60676539148418
C            3.04018188847992        1.21551307586397       -0.27405439411748
C            2.41070153575027        2.41637824922242       -0.61510724070688
C            2.98776060616437        3.63225507660053       -0.31299216203520
C            4.20906201872807        3.67110156400098        0.33569688889187
C            4.83220811205250        2.48386298413222        0.67624569588898
C            4.27286716383188        1.24633250087288        0.38720580494830
H            6.23609248571766       -0.01370672634410       -0.99427898319546
H            6.94651840689053       -0.89533950269413        0.35865612350327
H            6.95416341916406        0.86573938133272        0.35603643695840
H            4.22474141015540        0.00126641447323        2.81411550608863
H            5.74792733069339        0.87472154087735        2.64096164932100
H            5.74043551699766       -0.88569282849323        2.64406598517783
H            5.73433291305921       -2.56779703995727        1.20244771026191
H            4.58356854343466       -4.63557100294426        0.61031863773922
H            2.39637657780090       -4.53268859920998       -0.55811318544592
H            1.41675243641773       -2.36229713934432       -1.11297256382443
H            2.14104758657153        0.01428433547869       -3.22360589748249
H           -0.00014273330937        0.01988565918538       -4.46262270257304
H           -2.14124826310999        0.01444315047439       -3.22345884122732
H           -1.43469851660296        2.37443755462495       -1.11780177005381
H           -2.43273997847501        4.53863163846907       -0.57110089304086
H           -4.62185584314970        4.62739114924474        0.59480420855783
H           -5.75571065577622        2.55213633768949        1.19359682446324
H           -6.95397340544389        0.86653282844151        0.35610830509344
H           -6.23591869628372       -0.01294891747730       -0.99419288713280
H           -6.94662084746015       -0.89455317954873        0.35861621514719
H           -5.74065647153459       -0.88537738960173        2.64412903258776
H           -4.22492875845017        0.00148053405782        2.81439281206502
H           -5.74805303207151        0.87503078592953        2.64117881791293
H           -5.73465291904154       -2.56729360281717        1.20250263819748
H           -4.58416657393817       -4.63517618725125        0.61021616359199
H           -2.39698385639291       -4.53249881321063       -0.55825075399950
H           -1.41708977367697       -2.36219512656283       -1.11298593518741
H            0.00002637797960       -0.00048985887797        0.47336666658478
H            1.43504692602324        2.37433647609360       -1.11824128770155
H            2.43349656193728        4.53843906730927       -0.57191888745391
H            4.62267071798970        4.62699035357223        0.59389169279942
H            5.75617131547186        2.55162577495288        1.19297854132546
