  94
 
 C         -5.5893093754        3.8285837226        0.9084532936
 C         -5.4527575775        2.6301853162       -0.0497646665
 C         -6.5103449021        2.7176642753       -1.1662975294
 C         -4.0805472385        2.6650817676       -0.6881934727
 C         -3.7024226765        3.7654454869       -1.4452687424
 C         -2.4775138151        3.8301038047       -2.0835395894
 C         -1.6051085776        2.7575257678       -1.9916218518
 C         -1.9514394577        1.6554842368       -1.2430761843
 C         -3.1748771913        1.6021204053       -0.5616783730
 N         -3.4748442604        0.4954707375        0.2077338284
 C         -2.4885474100       -0.5162654288        0.3699870364
 C         -1.3553179228       -0.2664571876        1.1422880169
 C         -0.4025992190       -1.2419507030        1.3008298546
 C         -0.5449074471       -2.5034539666        0.6912374679
 C          0.4577560638       -3.5173352909        1.0100987302
 O          1.2049554453       -3.3761084706        2.0002201664
 C          0.5498317220       -4.7183168779        0.1778428317
 C          0.7862234965       -5.9430791327        0.8154073919
 C          0.7476832599       -7.1206315437        0.1080734999
 C          0.4821269297       -7.1068816087       -1.2636869251
 C          0.3165605791       -5.9093271190       -1.9173475134
 C          0.4086294527       -4.6955634529       -1.2249587284
 C          0.4126412872       -3.4609694836       -2.0171349064
 O         -0.1921883327       -3.3680935016       -3.0847096210
 C          1.1930274845       -2.3274290901       -1.4794468330
 C          2.3878710635       -2.4846309432       -0.7691024188
 C          3.0533708282       -1.3958756861       -0.2653875374
 C          2.5394486900       -0.0956622020       -0.4312638559
 N          3.1428619610        0.9966817161        0.1603953919
 C          4.2976258196        0.9191188667        0.9582922379
 C          4.3854102493        0.0249025990        2.0205041071
 C          5.5188029370        0.0077983422        2.8105009155
 C          6.5496219037        0.8959957262        2.5580272002
 C          6.4398807990        1.8187168641        1.5302673239
 C          5.3167119187        1.8500857668        0.7201298391
 C          5.1055304549        2.8287995085       -0.4217946801
 C          5.2807223818        2.0821980858       -1.7601736181
 C          6.1004304431        3.9885252008       -0.3906826268
 C          3.6660903892        3.2957379949       -0.3022007926
 C          3.2478783828        4.6083653406       -0.4486573923
 C          1.9109763730        4.9486300151       -0.3180355163
 C          0.9725991671        3.9813514799       -0.0028469873
 C          1.3686101553        2.6676805847        0.1563996305
 C          2.7025630202        2.3176281255       -0.0266739129
 C          1.4499958117        0.0661060056       -1.2990432698
 C          0.7884631334       -1.0277293351       -1.8024966614
 C         -1.7025779433       -2.7480567015       -0.0631387448
 C         -2.6538891302       -1.7699808918       -0.2261391558
 C         -4.6880154564        0.3680824176        0.8565571112
 C         -4.9287904857       -0.7522571174        1.6636447395
 C         -6.1361946303       -0.9169197290        2.3039948646
 C         -7.1294982256        0.0384333004        2.1611423803
 C         -6.8845772069        1.1617863531        1.3935772362
 C         -5.6760630502        1.3566854388        0.7391062447
 H         -6.5715486361        3.8440825532        1.3717841950
 H         -5.4488897612        4.7664105709        0.3785801080
 H         -4.8399703617        3.7616398546        1.6950245506
 H         -7.5139480873        2.7089831616       -0.7509155795
 H         -6.4090427154        1.8685159209       -1.8393496758
 H         -6.3885367703        3.6295394423       -1.7439935072
 H         -4.3813189036        4.5983004992       -1.5472231452
 H         -2.2131310734        4.7027898325       -2.6606965220
 H         -0.6571384339        2.7810927883       -2.5075958737
 H         -1.2824469135        0.8129003464       -1.1857252693
 H         -1.2470098105        0.6957495069        1.6237396436
 H          0.4718563430       -1.0701596871        1.9097279884
 H          0.9557278212       -5.9371519990        1.8820349900
 H          0.9043170680       -8.0605745685        0.6167604302
 H          0.4306173082       -8.0354316817       -1.8126905998
 H          0.1550987003       -5.8687362721       -2.9848523352
 H          2.7988664869       -3.4715560055       -0.6187648075
 H          3.9891329899       -1.5459737641        0.2478123909
 H          3.5597602362       -0.6349969281        2.2384700985
 H          5.5879926110       -0.6905419540        3.6302460782
 H          7.4371203410        0.8845677253        3.1723651447
 H          7.2469509162        2.5147460740        1.3695909070
 H          5.0935252961        2.7616674031       -2.5890603585
 H          4.5971139013        1.2419790282       -1.8459741459
 H          6.2978303675        1.7046921956       -1.8407889005
 H          7.1159778960        3.6135092837       -0.4885770466
 H          6.0168835560        4.5501945876        0.5370526351
 H          5.9219719238        4.6578993104       -1.2284678132
 H          3.9615113959        5.3851024441       -0.6700881221
 H          1.6066110463        5.9762628930       -0.4465791723
 H         -0.0657437285        4.2467303746        0.1274821539
 H          0.6537029086        1.9120983853        0.4427667127
 H          1.1362129736        1.0555706553       -1.5910955683
 H         -0.0618942190       -0.9055112473       -2.4567522883
 H         -1.8577665948       -3.7159503176       -0.5148731000
 H         -3.5407963663       -1.9628417583       -0.8118581660
 H         -4.1544937918       -1.4920665974        1.7883290840
 H         -6.3010605003       -1.7896769028        2.9170857615
 H         -8.0821051978       -0.0835872612        2.6530695866
 H         -7.6607218808        1.9069000045        1.3084254567
