  70
 
 C          6.3814335921       -1.7165396531       -0.5206760223
 C          6.0398505270       -0.2710494956       -0.1288438513
 C          6.2613971142        0.6603021622       -1.3298758890
 C          6.9931875605        0.1562012708        0.9910920905
 C          4.5781835677       -0.2006286647        0.2881329096
 C          3.5867649139       -0.5789967793       -0.6138119218
 C          2.2458783980       -0.5411867127       -0.2853534886
 C          1.8585777215       -0.1205394705        0.9800934774
 O          0.5427093817        0.0086049297        1.3638673344
 C         -0.4196208521       -0.8250435274        0.8747940316
 C         -0.2561568971       -2.1664000591        0.5700128936
 C         -1.3501257260       -2.9082388036        0.1521180020
 C         -2.6201814563       -2.3529999959        0.0391071147
 C         -3.8396605631       -3.1489877533       -0.4025097215
 C         -4.4513087064       -2.4877649276       -1.6465659963
 C         -4.8648623253       -3.1526870753        0.7409743037
 C         -3.5003484481       -4.6014574052       -0.7502236118
 C         -2.7658876453       -1.0045093519        0.3608906275
 C         -1.6831697694       -0.2463578208        0.7600609589
 P         -1.7412222386        1.5015329593        1.2715041708
 O         -1.5805351974        1.7039537559        2.7240093940
 C         -0.4918462305        2.3515954378        0.2553002166
 C          0.1810304124        3.4175736087        0.8339763683
 C          1.1594917885        4.0892318567        0.1227892364
 C          1.4651475794        3.6950669118       -1.1697267065
 C          0.7928494099        2.6310232213       -1.7497815121
 C         -0.1854636695        1.9582520808       -1.0406451946
 C         -3.3496872211        2.1106219009        0.6673913749
 C         -3.6851243410        2.1293478787       -0.6811811810
 C         -4.9275500397        2.5922036717       -1.0744593521
 C         -5.8366312150        3.0389881076       -0.1271660629
 C         -5.5022405651        3.0265956068        1.2171358920
 C         -4.2590509818        2.5637488753        1.6124974863
 C          2.8287505498        0.2777659237        1.8889438967
 C          4.1666919358        0.2361306766        1.5424953817
 H          6.2027548209       -2.3855534321        0.3188727037
 H          7.4296386012       -1.7892293327       -0.8027698691
 H          5.7792926102       -2.0539023521       -1.3595204655
 H          5.9933926164        1.6817306751       -1.0670948490
 H          7.3074958908        0.6427091435       -1.6282163951
 H          5.6585029117        0.3582786615       -2.1816455957
 H          6.8834804623       -0.4838832252        1.8635695745
 H          6.8184711146        1.1894772622        1.2817450550
 H          8.0206716312        0.0750496777        0.6419251099
 H          3.8546281151       -0.9091479846       -1.6057467223
 H          1.4995647205       -0.8277205823       -1.0117782511
 H          0.7134519796       -2.6325866330        0.6693390136
 H         -1.1876123173       -3.9482481727       -0.0770773509
 H         -3.7184987496       -2.4454336052       -2.4498403461
 H         -4.7874061093       -1.4767094978       -1.4342276988
 H         -5.3070942005       -3.0642845139       -1.9907608439
 H         -5.7421212342       -3.7287429558        0.4547808743
 H         -4.4322336670       -3.6009822715        1.6333556080
 H         -5.1846348800       -2.1441046724        0.9894990666
 H         -4.4047155970       -5.1167331722       -1.0669204160
 H         -2.7819536193       -4.6511658266       -1.5651505492
 H         -3.1004842586       -5.1278951864        0.1131445313
 H         -3.7299812788       -0.5218300730        0.2964756211
 H         -0.0644544654        3.6937591600        1.8504280378
 H          1.6860115357        4.9154924863        0.5778862594
 H          2.2325374575        4.2138475746       -1.7251091512
 H          1.0375804393        2.3203450259       -2.7551411693
 H         -0.6973091141        1.1140131861       -1.4822668124
 H         -2.9756406038        1.7796113024       -1.4161205199
 H         -5.1894926082        2.6041334619       -2.1224805183
 H         -6.8063470846        3.3984956403       -0.4387627647
 H         -6.2080669555        3.3760295038        1.9565815503
 H         -3.9730306378        2.5437200668        2.6550736146
 H          2.5157408766        0.6244525545        2.8623210214
 H          4.8865932339        0.5516507666        2.2792609970
