  32
 
 C         -5.3376602397        0.5243781150        0.0000208226
 C         -4.6024294415        1.7072747441        0.0000143167
 C         -3.2201877777        1.6894945135        0.0000073101
 C         -2.5693956120        0.4628877083        0.0000070393
 C         -3.3277013856       -0.7314014429        0.0000132913
 C         -4.7131888903       -0.7099135425        0.0000201910
 N         -2.4684106420       -1.8029322698        0.0000115979
 C         -1.1725520215       -1.3520089881        0.0000048856
 C         -0.0000112578       -2.0895485318        0.0000004625
 C          1.1725374776       -1.3520216559       -0.0000043220
 N          2.4683912253       -1.8029589409       -0.0000067444
 C          3.3276935464       -0.7314373982       -0.0000104681
 C          4.7131812845       -0.7099644641       -0.0000128820
 C          5.3376659661        0.5243204463       -0.0000162191
 C          4.6024479453        1.7072250207       -0.0000174521
 C          3.2202060920        1.6894597218       -0.0000150636
 C          2.5694006770        0.4628599445       -0.0000112966
 C          1.1845128352        0.0714606837       -0.0000069977
 C          0.0000043056        0.7910446911       -0.0000044892
 C         -1.1845119981        0.0714734837        0.0000017837
 H         -6.4171017665        0.5722602043        0.0000260474
 H         -5.1255053840        2.6527466756        0.0000147553
 H         -2.6557181780        2.6102076162        0.0000024857
 H         -5.2861819175       -1.6257557345        0.0000248979
 H         -2.7459352459       -2.7696633982        0.0000139684
 H         -0.0000170807       -3.1690141825        0.0000027433
 H          2.7459053765       -2.7696930696       -0.0000047384
 H          5.2861644199       -1.6258128445       -0.0000120634
 H          6.4171080099        0.5721908837       -0.0000184931
 H          5.1255341070        2.6526912977       -0.0000206681
 H          2.6557464300        2.6101789169       -0.0000158947
 H          0.0000101401        1.8699697963       -0.0000068061
