  64
 
 O          5.7183917590        2.4217756999        0.5575768014
 S          5.6961947688        1.0578669721        1.0195799697
 O          6.2592991374        0.7610412339        2.3118498937
 C          6.5123220112        0.0187098151       -0.2016467485
 C          7.2779458392       -1.0520555529        0.2160799966
 C          7.8607626376       -1.8775253759       -0.7311850553
 C          7.6655810169       -1.6246503334       -2.0799348506
 C          6.8946414432       -0.5464288385       -2.4878230260
 C          6.3107045733        0.2803526080       -1.5432743801
 C          4.0251635740        0.4491164963        0.9481371027
 C          3.7208443629       -0.7775287072        1.5367409729
 C          2.4588174939       -1.2944092803        1.4330485979
 C          1.4225922481       -0.6000210894        0.7371391860
 C          0.1132881002       -1.1232665113        0.6309285046
 C         -0.1617143602       -2.5256257238        0.8562002542
 C         -1.4012207796       -3.0585383840        0.7492211024
 C         -2.5027193560       -2.2173815492        0.4253766646
 C         -2.2489446831       -0.8121266223        0.2096979736
 C         -1.0102275259       -0.2861514846        0.2915439287
 C         -3.5503822038       -0.1070704382       -0.0918105904
 C         -3.5482028679        0.6447424534       -1.4007723034
 C         -3.3056041053        0.1569325611       -2.6662173988
 C         -3.3617272422        1.0398604465       -3.7361791457
 C         -3.6555767694        2.3808462203       -3.5363220094
 C         -3.8994585661        2.8750266013       -2.2650360541
 C         -3.8446583410        2.0002443562       -1.1922761481
 C         -4.0486731832        2.2143033395        0.2313449619
 C         -4.3583811935        3.3581527139        0.9488405519
 C         -4.4930143408        3.2613003298        2.3244099868
 C         -4.3219574462        2.0477103059        2.9743183040
 C         -4.0121609793        0.8969813780        2.2621389624
 C         -3.8780390034        0.9898760174        0.8942571720
 C         -4.5391493982       -1.2463017161       -0.0554265223
 C         -5.8889020037       -1.2126203762       -0.2730434926
 C         -6.6142513632       -2.4037383011       -0.1792027270
 C         -5.9753585893       -3.6083550870        0.1322067949
 C         -4.6214092740       -3.6620296061        0.3540176211
 C         -3.8701881055       -2.4703705937        0.2617145491
 C          1.7762466107        0.6554346904        0.1552937303
 C          3.0472806305        1.1532896574        0.2488135470
 H          7.4174153712       -1.2085940759        1.2743363952
 H          8.4673968592       -2.7143878630       -0.4190500055
 H          8.1204116089       -2.2684820627       -2.8182054611
 H          6.7511969317       -0.3511392691       -3.5399745513
 H          5.7158108668        1.1341050534       -1.8275655985
 H          4.4937394720       -1.2885113404        2.0897255182
 H          2.2337312194       -2.2226530581        1.9327822670
 H          0.6684854979       -3.1786131145        1.0727919528
 H         -1.5666794240       -4.1148241610        0.9006435100
 H         -0.8671733931        0.7736235204        0.1524061881
 H         -3.0774186799       -0.8876691566       -2.8213557520
 H         -3.1749619986        0.6781959397       -4.7365115166
 H         -3.6946722294        3.0482953196       -4.3847540638
 H         -4.1275896391        3.9196676178       -2.1148364997
 H         -4.4920341803        4.3053409224        0.4479704010
 H         -4.7340174481        4.1428090722        2.9002489629
 H         -4.4308762346        1.9974727941        4.0475259767
 H         -3.8787915443       -0.0483927281        2.7678008654
 H         -6.3881164952       -0.2849448591       -0.5122933134
 H         -7.6800127303       -2.3941961399       -0.3477568097
 H         -6.5654066295       -4.5110276845        0.1976815362
 H         -4.1306743301       -4.5929628191        0.5935285431
 H          1.0399888988        1.2050154272       -0.4086784503
 H          3.3192483634        2.0982826986       -0.1955047784
