  96
 
 C          7.3283917384       -4.7151748922       -0.4625159032
 C          8.0002927880       -3.5061800003       -0.3680553834
 C          7.2924837272       -2.3253086870       -0.2640904086
 C          5.8976622371       -2.3441103151       -0.2541881798
 C          5.1483171393       -1.1005984028       -0.1351495327
 N          5.8363135018        0.0520687753       -0.0070841767
 C          5.1252581915        1.1913729138        0.1215563813
 C          5.8508579282        2.4488768165        0.2388121902
 C          7.2459040871        2.4581011624        0.2317656250
 C          7.9312474768        3.6522494704        0.3341627204
 C          7.2367935439        4.8470881931        0.4442987433
 C          5.8495441032        4.8443783630        0.4524931731
 C          5.1576195860        3.6549356451        0.3505949596
 N          3.8204597385        1.2008212786        0.1402386741
 C          3.1560889991        0.0261466228       -0.0038227900
 C          1.7395689483        0.0113335213       -0.0020033964
 C          1.0051226818        1.1852309597        0.2620580252
 C         -0.3701551203        1.1695382013        0.2705758149
 N         -1.0846117307        2.3521164747        0.5451823071
 C         -2.1522626749        2.4681638083        1.4157430268
 C         -2.5505956294        1.6090427170        2.4294364057
 C         -3.6724553213        1.9511761903        3.1583750838
 C         -4.3698364111        3.1320199631        2.9096279170
 C         -3.9427504144        4.0215333845        1.9445327824
 C         -2.8205222204        3.6930265983        1.1953730031
 C         -2.0948346068        4.3608115985        0.1539132112
 N         -2.3026119446        5.5318908331       -0.4217977089
 C         -1.4693779507        5.8940449900       -1.3763511079
 C         -0.4016868567        5.1108278580       -1.8140232614
 C         -0.1603513466        3.8806796077       -1.2258236158
 C         -1.0234520410        3.4979961363       -0.2108480273
 C         -1.0798522984       -0.0193460411       -0.0066310386
 N         -2.4844902550       -0.0245679798       -0.0305560348
 C         -3.2753347786        0.7999917204       -0.8084204669
 C         -2.8994637727        1.6900045258       -1.8046145124
 C         -3.8952981875        2.4104275572       -2.4333043417
 C         -5.2383238114        2.2363323176       -2.1031292816
 C         -5.6235959504        1.3132743146       -1.1525830583
 C         -4.6368897928        0.5830196135       -0.5028745397
 C         -4.6631092975       -0.4475951613        0.4923220757
 N         -5.6836246903       -1.0262240324        1.1007648011
 C         -5.4097285595       -1.9510170274        1.9976790926
 C         -4.1146860640       -2.3213102434        2.3593241120
 C         -3.0291391279       -1.7259602598        1.7419428014
 C         -3.3083341125       -0.7870028112        0.7610670994
 C         -0.3455099526       -1.1952635661       -0.2657388189
 N         -1.0327461234       -2.3988729507       -0.5201247979
 C         -0.9167607413       -3.5497412547        0.2392137909
 C         -0.0269322868       -3.8415983335        1.2637447021
 C         -0.1409265231       -5.0715002686        1.8826055722
 C         -1.1172855210       -5.9924539268        1.5045062729
 C         -2.0147090708       -5.7036173002        0.4970639387
 C         -1.9174955434       -4.4731293123       -0.1405205471
 C         -2.6692157876       -3.8426620045       -1.1859757340
 N         -3.7099381567       -4.2762193290       -1.8763284903
 C         -4.1978060349       -3.4763245033       -2.8022158995
 C         -3.6558457900       -2.2295962014       -3.1139046503
 C         -2.5587231172       -1.7592462491       -2.4141450457
 C         -2.0770959679       -2.5669120969       -1.3956234760
 C          1.0297670511       -1.1798202130       -0.2597991808
 N          3.8441036950       -1.1349313351       -0.1505547469
 C          5.2270315085       -3.5641708468       -0.3499378127
 C          5.9414007827       -4.7402238377       -0.4532747354
 H          7.8845721143       -5.6375194382       -0.5427232640
 H          9.0803235530       -3.4876291928       -0.3751049132
 H          7.8012841489       -1.3765806523       -0.1890616894
 H          7.7725745067        1.5202192227        0.1448883705
 H          9.0114366964        3.6551969727        0.3279037394
 H          7.7753985637        5.7798793261        0.5234685194
 H          5.3094220111        5.7759872259        0.5384171517
 H          4.0786487639        3.6367380079        0.3545847049
 H          1.5400245313        2.0923843018        0.4926217283
 H         -1.9959719055        0.7095743726        2.6492182790
 H         -4.0132342359        1.2894605136        3.9407750354
 H         -5.2474037153        3.3570006623        3.4962908289
 H         -4.4557375088        4.9528631349        1.7654430330
 H         -1.6604743023        6.8614700048       -1.8198449803
 H          0.2359148674        5.4700015355       -2.6066311329
 H          0.6593338785        3.2529242687       -1.5449287960
 H         -1.8645844067        1.8111623499       -2.0889904824
 H         -3.6256726958        3.1211983415       -3.2003315837
 H         -5.9848660213        2.8253673371       -2.6137056393
 H         -6.6611880236        1.1492317118       -0.9095151114
 H         -6.2663771459       -2.4174529273        2.4638329234
 H         -3.9623840129       -3.0707531378        3.1197849796
 H         -2.0184917242       -1.9841857651        2.0227639137
 H          0.7256236439       -3.1309033882        1.5709172398
 H          0.5421381849       -5.3239812938        2.6801765510
 H         -1.1700613906       -6.9422299132        2.0150677121
 H         -2.7808380032       -6.4025632767        0.2015876531
 H         -5.0562856671       -3.8537449452       -3.3399263520
 H         -4.0877547321       -1.6396302539       -3.9066530807
 H         -2.0986679100       -0.8145139813       -2.6620993357
 H          1.5838880470       -2.0769574823       -0.4835191265
 H          4.1479507246       -3.5678500668       -0.3393625237
 H          5.4188306502       -5.6828223758       -0.5262908777
