  55
 
 N         -1.7114446615       -5.9981931741       -0.0000074870
 C         -1.9981857804       -4.8765076294       -0.0001160399
 C         -2.3347154087       -3.5284653975       -0.0002246361
 C         -3.6978033649       -3.1294502180       -0.0008999899
 C         -4.0509026165       -1.8120708972       -0.0009153123
 C         -3.0400043591       -0.8204024622       -0.0002386521
 C         -1.6689837911       -1.2342148247        0.0003216799
 C         -1.3100323235       -2.5421373798        0.0003671973
 C         -0.7524952394       -0.0139209198        0.0007570780
 C         -1.7756277987        1.1179583408        0.0007945460
 C         -1.5366387824        2.4530560031        0.0011808404
 C         -2.6465303742        3.3424254507        0.0007815032
 C         -2.4336686057        4.7154795364        0.0010974183
 N         -2.2495622673        5.8584897234        0.0014081554
 C         -3.9678690296        2.8216275552       -0.0000090371
 C         -4.2002841362        1.4776893553       -0.0003667612
 C         -3.1036678842        0.5817859808        0.0000280574
 C          0.0731899078        0.0213629969        1.2523911298
 C         -0.5654225029        0.0040082545        2.4847600417
 C          0.1548840740        0.0322776543        3.6637014639
 C          1.5444962204        0.0784248129        3.6202106232
 C          2.2002620473        0.0952249686        2.4108832670
 C          1.4779116203        0.0677201000        1.2069708383
 N          2.1407754520        0.0856746153        0.0009243640
 C          3.5702028436        0.1128072451        0.0008709901
 C          4.2789183080       -1.0819223758       -0.0124542706
 C          5.6628729052       -1.0531690469       -0.0126769161
 C          6.3344630644        0.1586540167        0.0003316461
 C          5.6228793288        1.3474659765        0.0136843233
 C          4.2386312024        1.3305471436        0.0139899518
 C          1.4779758164        0.0697094150       -1.2051852746
 C          2.2003162728        0.1018110233       -2.4089958665
 C          1.5446672346        0.0862529162       -3.6183993557
 C          0.1551602212        0.0372372957       -3.6620775572
 C         -0.5651916510        0.0060639093       -2.4832396354
 C          0.0733037268        0.0223263829       -1.2507929425
 H         -4.4540272165       -3.9021816476       -0.0013853490
 H         -5.0899516847       -1.5190163313       -0.0014095537
 H         -0.2761331761       -2.8574274056        0.0008652036
 H         -0.5355320888        2.8606965959        0.0017206858
 H         -4.7909037596        3.5227510279       -0.0003442235
 H         -5.2085282839        1.0918576690       -0.0010003450
 H         -1.6442054718       -0.0324253313        2.5095939428
 H         -0.3601475969        0.0185793650        4.6114851680
 H          2.1139334521        0.1005639069        4.5364347155
 H          3.2775362397        0.1299257582        2.3844279603
 H          3.7450657317       -2.0204415327       -0.0223849760
 H          6.2148710310       -1.9805097378       -0.0229755225
 H          7.4135511679        0.1764695677        0.0000864835
 H          6.1440062605        2.2925106169        0.0237549479
 H          3.6744163276        2.2511082200        0.0241661900
 H          3.2774887688        0.1393129106       -2.3824012009
 H          2.1141106933        0.1117956443       -4.5345308689
 H         -0.3597785889        0.0242330023       -4.6099209863
 H         -1.6439271402       -0.0315852029       -2.5082210259
