  62
 
 O         -0.1153510736       -4.0382798924        1.3023738258
 C         -0.8873511411       -3.2694586557        0.6660440034
 C         -2.1702491358       -3.6955490377        0.2045585265
 C         -2.9782962700       -3.0719497408       -0.7807336852
 N         -4.1290400886       -3.5455212261       -1.1740831206
 C         -4.5668516515       -4.6844386619       -0.6427936577
 N         -3.8546306520       -5.3906436304        0.2325293656
 C         -2.7045397425       -4.9457196715        0.6371469331
 C         -0.4441719732       -1.8892560333        0.3735668695
 C         -1.3121142182       -0.7933139363        0.3885703494
 C         -0.8182257564        0.4903526437        0.1792973699
 N         -1.6842540147        1.5896822147        0.2526512690
 C         -2.8740813055        1.7347290850       -0.4315295452
 C         -3.4452841855        0.9132724511       -1.3938072429
 C         -4.6462667987        1.3093498813       -1.9530088879
 C         -5.2614397380        2.5007259345       -1.5771991947
 C         -4.6829433013        3.3384750879       -0.6384304079
 C         -3.4812182851        2.9580583224       -0.0614184676
 C         -2.6076070998        3.5695562265        0.9068105243
 C         -2.6681767991        4.7469361952        1.6361363371
 C         -1.6422902172        5.0301789646        2.5219910456
 C         -0.5769345860        4.1499585261        2.6916317016
 C         -0.4955057256        2.9693814939        1.9752739687
 C         -1.5108575150        2.6904872115        1.0695869880
 C          0.5418863039        0.7018728137       -0.0335674289
 C          1.4130344183       -0.3859466520       -0.0208929875
 N          2.7820033415       -0.1899598012       -0.2308101434
 C          3.3452767905        0.5389143034       -1.2599150298
 C          2.7317986436        1.1979178408       -2.3177173185
 C          3.5435613746        1.8404881648       -3.2352358669
 C          4.9304533535        1.8234514284       -3.1147061313
 C          5.5484237769        1.1469207437       -2.0761963548
 C          4.7549534316        0.4953044585       -1.1450315734
 C          5.0452912889       -0.3059970385        0.0164529736
 C          6.2225816029       -0.6905068978        0.6388045206
 C          6.1429930255       -1.4748455194        1.7774561303
 C          4.9108479378       -1.8578608903        2.3007605994
 C          3.7226945260       -1.4815734444        1.7002859935
 C          3.7977546921       -0.7162596013        0.5433613497
 C          0.9216420965       -1.6686645975        0.1787020048
 H         -2.6348993882       -2.1781303595       -1.2856857972
 H         -5.5269728386       -5.0628930991       -0.9505024285
 H         -2.1275258332       -5.5457545306        1.3296077022
 H         -2.3543044361       -0.9225122749        0.6369315078
 H         -2.9660910288       -0.0014855720       -1.7048752984
 H         -5.1127766465        0.6811995810       -2.6967979822
 H         -6.1999909386        2.7767119277       -2.0337585170
 H         -5.1537100322        4.2696574569       -0.3629922774
 H         -3.4999897532        5.4239223646        1.5171444905
 H         -1.6704910230        5.9426044991        3.0984526908
 H          0.2011633732        4.3907820926        3.4003461359
 H          0.3237669854        2.2841655604        2.1288575833
 H          0.9184785052        1.7011714100       -0.1831099155
 H          1.6591286600        1.1979209211       -2.4332681451
 H          3.0904276920        2.3617540913       -4.0650654506
 H          5.5312554196        2.3374297912       -3.8498597079
 H          6.6240573716        1.1209895059       -1.9946413078
 H          7.1787100169       -0.3828773163        0.2442046742
 H          7.0483210894       -1.7895169836        2.2744756793
 H          4.8789131389       -2.4600671756        3.1963991398
 H          2.7732932042       -1.7759014518        2.1207759718
 H          1.5842607568       -2.5202869013        0.1627145663
