  74
 
 C          9.6046774381        0.6528454343       -1.7024252721
 C          8.5779314972        1.4165037298       -0.8618657250
 C          9.2725918453        2.3112247384        0.1683573937
 C          7.6242069560        0.4649048347       -0.1836341657
 C          8.0860217111       -0.4837258956        0.7367407153
 C          7.2238801618       -1.3506079055        1.3667762147
 C          5.8577282662       -1.2910947528        1.0892965679
 O          5.0381043575       -2.1608384666        1.7336677639
 C          3.7314781283       -2.1031975371        1.4804098235
 C          3.1251259468       -1.2534095130        0.6198277816
 C          1.6644737471       -1.2838249812        0.4461075824
 C          0.8244497699       -1.3951467015        1.5532176199
 C         -0.5474773729       -1.4166484106        1.3954725557
 C         -1.1021692830       -1.3248708003        0.1245051463
 N         -2.5183628175       -1.3446633852       -0.0340952506
 C         -3.1543715916       -2.5673018989       -0.1864844862
 C         -2.3942075652       -3.7400225579       -0.2238803690
 C         -2.9972708501       -4.9714668750       -0.3731346676
 C         -4.3736641308       -5.0543798638       -0.4870638554
 C         -5.1265509703       -3.8949376772       -0.4517164942
 C         -4.5455778889       -2.6424224812       -0.3039375782
 C         -5.4252208230       -1.4072206124       -0.2698214973
 C         -6.3937777326       -1.5298562226        0.9217866136
 C         -6.2123734328       -1.3271234431       -1.5916402638
 C         -4.6154435066       -0.1310294271       -0.1111462397
 C         -5.2844765324        1.0796845638       -0.0733564655
 C         -4.5836676311        2.2691802557        0.0636110448
 C         -3.1826346254        2.2278542884        0.1634576082
 C         -2.4867663396        1.0408078438        0.1333534341
 C         -3.2097671575       -0.1496716782       -0.0047269126
 O         -2.6462004470        3.4777904595        0.2888444398
 C         -3.7043133133        4.3438403082        0.2687271335
 C         -3.6374276526        5.7207739873        0.3641144948
 C         -4.8330803742        6.4194612286        0.3223999655
 C         -6.0524946188        5.7616455895        0.1906570828
 C         -6.1175840828        4.3842898063        0.0948052481
 C         -4.9317776354        3.6623701707        0.1335643038
 C         -0.2730857545       -1.2112871559       -0.9840882264
 C          1.0995931046       -1.1898826455       -0.8235255819
 C          3.9326370395       -0.2849172830       -0.1303881082
 O          3.4655320818        0.5242115059       -0.9268178475
 C          5.3683160892       -0.3560689803        0.1715051636
 C          6.2716161222        0.5110999727       -0.4522749202
 H         10.2363218933        0.0298548671       -1.0745485843
 H          9.1022035861        0.0157353215       -2.4272295491
 H         10.2396283752        1.3534534703       -2.2398711180
 H          7.9949498065        2.0565717319       -1.5326713369
 H          9.8960927569        1.7233942865        0.8370105377
 H          8.5354385782        2.8453799838        0.7642458133
 H          9.9025438255        3.0399826539       -0.3364474917
 H          9.1394139096       -0.5400082541        0.9617774298
 H          7.5776173583       -2.0812613881        2.0771129711
 H          3.1830548665       -2.8477173291        2.0421687841
 H          1.2493523234       -1.4449026769        2.5443923538
 H         -1.1979304879       -1.4980261423        2.2538651936
 H         -1.3203404815       -3.6800956345       -0.1362713253
 H         -2.3898329103       -5.8642649933       -0.3997679781
 H         -4.8584512684       -6.0120800359       -0.6033346757
 H         -6.1992278770       -3.9753957689       -0.5416555081
 H         -7.0050704269       -2.4233857017        0.8324254291
 H         -7.0540561564       -0.6690486430        0.9760358629
 H         -5.8306687687       -1.5901145050        1.8515954914
 H         -5.5218900037       -1.2230275896       -2.4268332994
 H         -6.8832488963       -0.4728921824       -1.5934355297
 H         -6.8042907755       -2.2248656794       -1.7452888954
 H         -6.3592219110        1.1151976858       -0.1505972081
 H         -1.4121663268        1.0393661923        0.2103679995
 H         -2.6879762473        6.2227665894        0.4658645961
 H         -4.8163601372        7.4967207063        0.3938351081
 H         -6.9632141166        6.3415685997        0.1623259027
 H         -7.0649686135        3.8774817284       -0.0083081998
 H         -0.7091766605       -1.1389490367       -1.9694347786
 H          1.7387486366       -1.0984257953       -1.6876071728
 H          5.8641100167        1.2241199735       -1.1549045924
