  71
 
 C         -6.4082911044       -0.0128387829       -1.3134022562
 C         -5.7365278765        0.0895806536        0.0702781194
 C         -6.8047842702        0.1352908471        1.1803588168
 C         -4.9240672832        1.3660001908        0.1102162040
 C         -5.5691622884        2.5885628347       -0.0234815330
 C         -4.8775705238        3.7853660495       -0.0521126042
 C         -3.4936376865        3.7714380183        0.0192594089
 C         -2.8267028956        2.5732440501        0.1437009419
 C         -3.5247833047        1.3594722666        0.2242984568
 N         -2.8296043752        0.1738552737        0.3785491222
 C         -1.4181011689        0.1785399694        0.3647492708
 C         -0.6859764392        0.7752114930        1.4094676247
 C          0.6879224485        0.7750886533        1.4102238780
 C          1.4209945967        0.1781457773        0.3663687276
 N          2.8325194816        0.1728656833        0.3813819197
 C          3.4851392850       -1.0446153911        0.4496917444
 C          2.7523369729       -2.2017868127        0.7476531522
 C          3.3602634534       -3.4351369256        0.7968042513
 C          4.7237251216       -3.5392073714        0.5676323210
 C          5.4615466948       -2.3944880420        0.3315571119
 C          4.8741894356       -1.1369049170        0.2833643323
 C          5.7390290197        0.0858097578        0.0705973686
 C          6.4084090551       -0.0196997972       -1.3140167639
 C          6.8091240271        0.1327206787        1.1788458528
 C          4.9276366242        1.3629572686        0.1094775458
 C          5.5735163865        2.5847966590       -0.0270099944
 C          4.8828172214        3.7820867491       -0.0567563011
 C          3.4989683162        3.7693996277        0.0165415953
 C          2.8312490035        2.5719460286        0.1437984078
 C          3.5284728336        1.3577407152        0.2250587528
 C          0.7227956030       -0.4306906926       -0.6894246277
 N          1.2513873610       -0.9956036857       -1.7725090125
 S          0.0030548743       -1.5076377197       -2.7413190335
 N         -1.2463066478       -0.9949870220       -1.7741490189
 C         -0.7188815896       -0.4303653329       -0.6903436774
 C         -3.4830964524       -1.0432877897        0.4451387082
 C         -2.7510948477       -2.2016106165        0.7405864376
 C         -3.3599674309       -3.4345722263        0.7877164183
 C         -4.7236311237       -3.5371598721        0.5590970291
 C         -5.4606800513       -2.3913926289        0.3257422959
 C         -4.8723384714       -1.1341897922        0.2795619758
 H         -7.0341700451        0.8541744194       -1.5039884725
 H         -7.0256759315       -0.9043721039       -1.3738407956
 H         -5.6469756504       -0.0679608527       -2.0897730974
 H         -6.3242116060        0.2125881574        2.1538788820
 H         -7.4136774280       -0.7632585923        1.1679519409
 H         -7.4608535545        0.9903343172        1.0502383096
 H         -6.6436109343        2.6129224585       -0.1159385264
 H         -5.4112709003        4.7180796695       -0.1510019675
 H         -2.9323271702        4.6921572776       -0.0339328585
 H         -1.7487981991        2.5664768654        0.1672121135
 H         -1.2290160580        1.2008499750        2.2401603379
 H          1.2301279470        1.2006262916        2.2415128084
 H          1.6946229540       -2.1201515276        0.9441968678
 H          2.7728029232       -4.3135012233        1.0189073883
 H          5.2095887346       -4.5026565071        0.5904341189
 H          6.5253719595       -2.4892103667        0.1795441225
 H          5.6457323555       -0.0758730272       -2.0889813296
 H          7.0344727617        0.8465744002       -1.5073605469
 H          7.0251509072       -0.9117309196       -1.3737424707
 H          7.4172922643       -0.7663247418        1.1671264667
 H          7.4656920106        0.9869702504        1.0460641032
 H          6.3301993798        0.2122148339        2.1530031555
 H          6.6478646800        2.6081807637       -0.1208802005
 H          5.4171114643        4.7142110699       -0.1579669753
 H          2.9383401543        4.6904977503       -0.0372838580
 H          1.7533743541        2.5660475855        0.1689495834
 H         -1.6932266933       -2.1212852358        0.9367569889
 H         -2.7730555558       -4.3138062047        1.0078139799
 H         -5.2102287196       -4.5002750994        0.5802957680
 H         -6.5246967900       -2.4849359619        0.1743475517
