  45
 
 C          7.5446056354        1.7268057332        0.3758379536
 O          7.0711281056        0.5081788832       -0.1562452581
 C          5.7309129082        0.2752917495       -0.1683251026
 C          5.3448294634       -0.9674707893       -0.7117688246
 C          4.0265574374       -1.3196791909       -0.7771009626
 C          3.0165012353       -0.4511925820       -0.2977398688
 C          1.6601444336       -0.7959907487       -0.3408626205
 C          0.6803057481        0.0709323898        0.1455121170
 C         -0.7233068794       -0.2172918494        0.1216196502
 N         -1.6421588585        0.7275193414        0.0366866186
 C         -2.8654641385        0.1171648532       -0.0139704249
 C         -4.0518382472        0.8969457135       -0.0775429664
 C         -3.9333285625        2.2769027975       -0.3630937861
 C         -5.0445785117        3.0805845502       -0.4428695790
 C         -6.3137006768        2.5503314504       -0.2286675472
 C         -6.4481067582        1.2008555746        0.0802507670
 C         -5.3439192041        0.3830127997        0.1569372095
 C         -2.6717512365       -1.3086392874        0.0276750816
 C         -3.4906150484       -2.4152826625       -0.0687078145
 C         -2.9170444401       -3.7088455484        0.0594352193
 C         -1.5704637134       -3.8351086017        0.3162219261
 C         -0.7534791316       -2.7115616188        0.3789938913
 N         -1.3056893009       -1.4783238587        0.1582440532
 C          1.0782421351        1.3388612740        0.6352124319
 C          2.3935215154        1.6897308676        0.6915748466
 C          3.4070995059        0.8062877022        0.2411622011
 C          4.7651186188        1.1492254122        0.2976296747
 H          7.2703486308        1.8336515390        1.4295783687
 H          8.6287175992        1.6832788810        0.2852560675
 H          7.1653873799        2.5823490646       -0.1908835371
 H          6.1223794930       -1.6235919189       -1.0713885342
 H          3.7396727789       -2.2740584216       -1.1937427189
 H          1.3857730746       -1.7224598353       -0.8225560014
 H         -2.9433892369        2.6720199889       -0.5285712317
 H         -4.9336021503        4.1307867390       -0.6723844090
 H         -7.1865248678        3.1827973607       -0.2910767072
 H         -7.4300986878        0.7909867900        0.2704724617
 H         -5.4676418281       -0.6485737168        0.4419690105
 H         -4.5437031506       -2.3126114315       -0.2547251630
 H         -3.5511461491       -4.5765127137       -0.0181294719
 H         -1.1233332527       -4.8039260008        0.4717809999
 H          0.2855340766       -2.7533877101        0.6493033453
 H          0.3041195717        2.0080537163        0.9769474185
 H          2.6835248010        2.6528200027        1.0859342753
 H          5.0304349198        2.1100225876        0.7099703615
