  105
 
 C          1.9916925291       -9.3064702040       -2.1300482146
 C          2.6078501071       -9.4904055272       -0.9031064866
 C          3.0889949265       -8.4079928890       -0.1923305714
 C          2.9654906878       -7.1187307512       -0.7085229801
 N          3.4633836668       -6.0192288649        0.0036745078
 C          4.6688070528       -6.1429332445        0.7077674669
 C          4.8281156494       -5.5288923320        1.9495623488
 C          6.0172540763       -5.6569225072        2.6405684396
 C          7.0590004303       -6.4023111533        2.1130234051
 C          6.9035921434       -7.0180976529        0.8819587458
 C          5.7212684356       -6.8891678020        0.1792401122
 C          2.7679245225       -4.8125682927        0.0088473011
 C          1.3697341883       -4.7979655589       -0.0153250528
 C          0.6847159043       -3.6046330338       -0.0113225429
 C          1.3724799950       -2.3911121455        0.0150951542
 C          0.6450650071       -1.1274778451        0.0136831842
 N         -0.6850455013       -1.1722544105        0.0365437626
 C         -1.3071518184        0.0046777774        0.0351843634
 C         -2.7641422110        0.0074447184        0.0849257363
 C         -3.4726334320        1.2085290063        0.0411742628
 C         -4.8475012937        1.2132594540        0.0939951908
 C         -5.5573910342        0.0124912157        0.1961376877
 N         -6.9483991397        0.0153962133        0.2549716744
 C         -7.6278522876        1.0604519974        0.8961659369
 C         -8.8239997146        1.5487829861        0.3721259092
 C         -9.4975809858        2.5708556061        1.0124288407
 C         -8.9890722589        3.1257729339        2.1753287369
 C         -7.7993841967        2.6457542742        2.6981700373
 C         -7.1227212130        1.6183385045        2.0700154261
 C         -7.6839661044       -1.0287173059       -0.3226162067
 C         -8.8306915943       -1.5137104615        0.3048034472
 C         -9.5597664391       -2.5352066805       -0.2725280128
 C         -9.1560583498       -3.0928048411       -1.4745910981
 C         -8.0156757460       -2.6161047535       -2.1002332035
 C         -7.2845383819       -1.5893305576       -1.5352438429
 C         -4.8461450722       -1.1910113727        0.2394041558
 C         -3.4714419543       -1.1911554389        0.1830369270
 N         -0.6813991873        1.1788695162       -0.0080530364
 C          0.6485570361        1.1289564751       -0.0322954735
 C          1.3802599868        2.3889177641       -0.0853669596
 C          0.6970465171        3.6049316220       -0.1159378085
 C          1.3864241505        4.7944448627       -0.1717927204
 C          2.7846553738        4.8027342900       -0.1984510252
 N          3.4845705672        6.0053042508       -0.2571658263
 C          2.9654042494        7.0911435733       -0.9751485549
 C          2.3015701491        6.8869598490       -2.1843318688
 C          1.7953572099        7.9615984182       -2.8891994485
 C          1.9491028181        9.2517091125       -2.4084655934
 C          2.6121928309        9.4598311881       -1.2101902680
 C          3.1146316895        8.3910366507       -0.4935621471
 C          4.7163732638        6.1384332667        0.3979813636
 C          5.7518349087        6.8658451929       -0.1872931155
 C          6.9605935111        7.0039824203        0.4670519356
 C          7.1593818396        6.4160956804        1.7054924805
 C          6.1345389079        5.6895533909        2.2894229849
 C          4.9194241874        5.5526437064        1.6470146787
 C          3.4686425431        3.5833588636       -0.1658289136
 C          2.7751970263        2.3963156169       -0.1104897143
 N          1.3528302829       -0.0004564284       -0.0118169276
 C          2.7673378207       -2.4047339989        0.0394700180
 C          3.4564094534       -3.5956636614        0.0374978005
 C          2.3488392056       -6.9389567735       -1.9462307611
 C          1.8635032396       -8.0269308997       -2.6452915894
 H          1.6146138450      -10.1544750391       -2.6812339502
 H          2.7080368986      -10.4840006193       -0.4916280179
 H          3.5617234982       -8.5525418858        0.7681571222
 H          4.0129994938       -4.9563460455        2.3672804734
 H          6.1274791642       -5.1783045007        3.6025141336
 H          7.9853561337       -6.5030784739        2.6578333225
 H          7.7121929770       -7.5972717443        0.4608794060
 H          5.6049671701       -7.3630276977       -0.7845214278
 H          0.8310923050       -5.7342926239       -0.0280491391
 H         -0.3935924796       -3.5889167300       -0.0218877745
 H         -2.9221063227        2.1319349580       -0.0444611007
 H         -5.3899129418        2.1463546735        0.0483943183
 H         -9.2177206182        1.1227310721       -0.5391282268
 H        -10.4222988898        2.9417151974        0.5953757465
 H         -9.5166478551        3.9263388136        2.6711765576
 H         -7.3988011337        3.0682857948        3.6078676995
 H         -6.2010112644        1.2378384690        2.4851756331
 H         -9.1422058532       -1.0857441859        1.2464625664
 H        -10.4451054680       -2.9036115457        0.2244900666
 H         -9.7265944018       -3.8929543917       -1.9210864635
 H         -7.6970459036       -3.0408380166       -3.0407793968
 H         -6.4017239747       -1.2114851422       -2.0297760300
 H         -5.3864604169       -2.1221749542        0.3284969097
 H         -2.9191137029       -2.1164575089        0.2260968731
 H         -0.3809652005        3.5944068552       -0.0863888100
 H          0.8515294347        5.7328896736       -0.1863996406
 H          2.1905638120        5.8827241376       -2.5662850281
 H          1.2850692733        7.7904568548       -3.8256175665
 H          1.5554555684       10.0891519842       -2.9641943598
 H          2.7327350454       10.4618932312       -0.8255798158
 H          3.6241190210        8.5545925729        0.4448295674
 H          5.6015366950        7.3177949499       -1.1568590957
 H          7.7556337310        7.5682871352        0.0022348632
 H          8.1062561404        6.5238675659        2.2123682649
 H          6.2786823946        5.2328130194        3.2574999384
 H          4.1177871515        4.9948987491        2.1085398971
 H          4.5485097295        3.5814968641       -0.1952869642
 H          3.2984888962        1.4534470529       -0.0958296250
 H          3.2944594868       -1.4639575069        0.0514778934
 H          4.5366323137       -3.5990419481        0.0474914855
 H          2.2579671564       -5.9431363591       -2.3546313310
 H          1.3899299162       -7.8747327145       -3.6040050321
