  45
 
 O          2.6214934815        1.4721147687       -2.3848154415
 S          3.0022345521        1.5205003573       -0.9966277192
 O          4.0109939015        2.4581222190       -0.5840863012
 C          3.4248811414       -0.1258413620       -0.4582469678
 C          2.9736756940       -1.2293089593       -1.1775466206
 C          3.1702895523       -2.4864312420       -0.6351930052
 C          3.7972961864       -2.5796988897        0.6011528969
 N          4.2312606242       -1.5237422727        1.2850637860
 C          4.0475037686       -0.3278340323        0.7659573426
 C          1.5453791767        1.7470774606        0.0080329345
 C          1.5923354656        2.4867854860        1.1862004552
 C          0.5048517380        2.4837124734        2.0348259509
 C         -0.6203037552        1.7194732892        1.7379259671
 C         -0.6460318959        0.9696596379        0.5587260296
 N         -1.7607379905        0.1399659026        0.2657248572
 C         -2.9728071860        0.6980729217       -0.0494161840
 C         -3.1843891300        2.0818725503       -0.1179157497
 C         -4.4197655538        2.5855759943       -0.4319737232
 C         -5.5044302933        1.7179053404       -0.7046101229
 C         -5.3211290843        0.3576769310       -0.6778821908
 C         -4.0733387385       -0.1783961079       -0.3628380968
 O         -3.9226672043       -1.5167130370       -0.3800526129
 C         -2.7222460797       -2.0519129314       -0.0843188867
 C         -2.5838768083       -3.4382952033       -0.1138986954
 C         -1.3854401201       -4.0235816338        0.2123191879
 C         -0.2864580033       -3.2188052691        0.6002194706
 C         -0.3961127222       -1.8537143911        0.6291130926
 C         -1.5965091456       -1.2222964091        0.2703835548
 C          0.4269209962        0.9899095865       -0.3122015012
 H          2.5027457471       -1.0768158857       -2.1362496384
 H          2.8443952425       -3.3735317635       -1.1560967496
 H          3.9688573547       -3.5370589543        1.0737281002
 H          4.4118298863        0.5165447221        1.3346103728
 H          2.4841451911        3.0532344701        1.4000711803
 H          0.5254860250        3.0616642198        2.9457976273
 H         -1.4618724514        1.6867749550        2.4118778822
 H         -2.3574408394        2.7468299818        0.0758774223
 H         -4.5694188928        3.6517627378       -0.4795352994
 H         -6.4697441605        2.1310671731       -0.9462728115
 H         -6.1245677984       -0.3260952072       -0.9017742145
 H         -3.4429351265       -4.0270279447       -0.3944812808
 H         -1.2793839180       -5.0954394743        0.1871478469
 H          0.6439650524       -3.6852846038        0.8798167715
 H          0.4461660679       -1.2519821037        0.9335281872
 H          0.4119784017        0.4297228074       -1.2337255924
