56

N     10.055345    0.239705   -0.844858
C      8.953111    0.123560   -0.499018
C      7.600125   -0.028664   -0.046938
N      6.637934    0.296254   -0.968097
C      5.392808    0.136900   -0.496454
C      5.094006   -0.315146    0.803402
N      6.020470   -0.637761    1.717540
C      7.301139   -0.480962    1.253539
C      8.334526   -0.812362    2.191840
N      9.186437   -1.075260    2.935571
C      3.651092   -0.355113    0.932811
C      2.810456   -0.714624    1.964889
C      1.424466   -0.632597    1.746170
C      0.873740   -0.194245    0.507666
C     -0.585854   -0.127047    0.357056
C     -1.341086   -1.295930    0.181426
C     -2.736848   -1.254306    0.037218
C     -3.515789   -2.489447   -0.151732
C     -4.604590   -2.793514    0.682605
C     -5.343798   -3.966196    0.504821
C     -5.006752   -4.855328   -0.512344
C     -3.931698   -4.573237   -1.351064
C     -3.192897   -3.400593   -1.171389
C     -3.368829    0.000815    0.075230
C     -2.646911    1.193784    0.252819
C     -3.331953    2.496840    0.288102
C     -4.407276    2.726307    1.162833
C     -5.057392    3.962993    1.197754
C     -4.643128    4.992415    0.356709
C     -3.579765    4.786590   -0.518258
C     -2.930117    3.549600   -0.551316
C     -1.253006    1.106777    0.393616
C      1.751411    0.171418   -0.555989
C      1.446808    0.619997   -1.866475
C      2.469504    0.936914   -2.789923
C      3.824738    0.817829   -2.447271
C      4.135722    0.377866   -1.176203
C      3.113692    0.070393   -0.279141
H      3.203568   -1.049890    2.919997
H      0.752073   -0.909596    2.558688
H     -0.830572   -2.258339    0.162704
H     -4.879099   -2.118447    1.490681
H     -6.180787   -4.184517    1.162925
H     -5.581609   -5.767122   -0.651522
H     -3.667852   -5.263441   -2.148138
H     -2.363953   -3.195042   -1.845768
H     -4.449046    0.052252   -0.060398
H     -4.740754    1.939997    1.837058
H     -5.885230    4.121088    1.884057
H     -5.148604    5.954182    0.383124
H     -3.255705    5.587081   -1.178180
H     -2.108796    3.408081   -1.250846
H     -0.673647    2.016712    0.547991
H      0.409088    0.722005   -2.179149
H      2.197227    1.278073   -3.787305
H      4.603855    1.062297   -3.163063
