  61
 
 C          1.5346990357        0.7586592279        2.8873084947
 C          0.4151600534        0.2423683402        2.2601106789
 C          0.5300362705       -0.3809554108        1.0189206466
 C         -0.6522858957       -0.9320492897        0.3422776292
 C         -0.6014705941       -2.1534687055       -0.3329940777
 N         -1.6357535647       -2.6882964214       -0.9554068633
 C         -2.7849242722       -2.0406110133       -0.9532177430
 C         -2.9654321846       -0.8168876560       -0.3042908983
 N         -4.2004934314       -0.1646567464       -0.3245579012
 C         -5.4263363143       -0.7424544072       -0.0443952264
 C         -5.7220717193       -2.0333202800        0.3695837824
 C         -7.0460964101       -2.3443168171        0.6170208879
 C         -8.0563955337       -1.3965518822        0.4678525185
 C         -7.7649372611       -0.1038040027        0.0797157908
 C         -6.4415834490        0.2320871849       -0.1762475462
 C         -5.7909009729        1.4521138296       -0.5680461331
 C         -6.2547746459        2.7264157848       -0.8688610061
 C         -5.3419867441        3.6913160832       -1.2467196162
 C         -3.9842769928        3.3939746684       -1.3412191497
 C         -3.4991806896        2.1330897428       -1.0479207165
 C         -4.4087227000        1.1660448045       -0.6442028792
 C         -1.8727320760       -0.2631799752        0.3571260356
 C          1.7814260656       -0.4697234327        0.4180160033
 C          2.9054753933        0.0506278044        1.0490116459
 N          4.1608729656       -0.0454972409        0.4309338913
 C          4.7222517233       -1.1996825433       -0.0795977607
 C          4.2387771444       -2.5004403208       -0.0617256862
 C          5.0213602405       -3.4886430332       -0.6280092311
 C          6.2618980921       -3.1990048038       -1.1930582413
 C          6.7598457851       -1.9110651435       -1.1907952270
 C          5.9912352706       -0.9004522703       -0.6269846117
 C          6.1952480404        0.5089286626       -0.4371722413
 C          7.2257162382        1.3790944142       -0.7701236104
 C          7.0911933595        2.7165417587       -0.4541311794
 C          5.9414378038        3.1920405566        0.1735856125
 C          4.9033294115        2.3460825470        0.5151912690
 C          5.0428641850        0.9967705347        0.2217600302
 C          2.7798358984        0.6649135280        2.2923579296
 H          1.4384476018        1.2309675293        3.8536250610
 H         -0.5481884574        0.3025890307        2.7434781084
 H          0.3086893170       -2.7368441669       -0.3629185645
 H         -3.5939006229       -2.5056606416       -1.5004189155
 H         -4.9464706409       -2.7722719156        0.5044697268
 H         -7.3015903593       -3.3443300730        0.9355238046
 H         -9.0793158297       -1.6792261027        0.6684190955
 H         -8.5459053195        0.6348465863       -0.0207737806
 H         -7.3091502350        2.9515904696       -0.8128385143
 H         -5.6818719318        4.6888789027       -1.4829629608
 H         -3.2946974848        4.1640174107       -1.6549866892
 H         -2.4470733910        1.9114596437       -1.1463160309
 H         -1.9740300268        0.6814208637        0.8707584747
 H          1.8811286991       -0.9161317240       -0.5600806857
 H          3.2875877359       -2.7376809115        0.3905474197
 H          4.6650364724       -4.5086065482       -0.6299450257
 H          6.8427493036       -3.9984352144       -1.6293902860
 H          7.7284991996       -1.6903192785       -1.6139629450
 H          8.1102046480        1.0134542703       -1.2702022932
 H          7.8822478208        3.4089646566       -0.7025312881
 H          5.8579671845        4.2462773201        0.3947442149
 H          4.0100773964        2.7276475494        0.9864432636
 H          3.6572513950        1.0513842669        2.7882215099
