  91
 
 O          9.1432648297       -2.3328797641        0.1285755015
 S          8.8002149197       -1.0746434136       -0.4833715777
 O          9.2997532197       -0.7887371406       -1.8039678777
 C          9.2644978376        0.2580212053        0.6173414904
 C          9.2883237102        0.0308401069        1.9825566409
 C          9.5655454592        1.0811811756        2.8386337182
 C          9.8088667261        2.3475902332        2.3252584692
 C          9.7823671077        2.5646766684        0.9547663005
 C          9.5054649294        1.5170088945        0.0951680758
 C          7.0255855946       -0.9100276444       -0.4935354286
 C          6.4246673156       -0.0282233194       -1.3876537874
 C          5.0623905382        0.1619924794       -1.3473878173
 C          4.2950575267       -0.5265696173       -0.4008602578
 N          2.8845252889       -0.3371489811       -0.3614982065
 C          2.3481423507        0.4651413477        0.6217474917
 C          3.1847505447        1.1055092146        1.5514627175
 C          2.6568119558        1.8969571113        2.5424951890
 C          1.2771161811        2.0813022951        2.6364587079
 C          0.4470911246        1.4739007176        1.7139594052
 C          0.9562160269        0.6715008920        0.7056538647
 C          0.0007734670        0.0568627801       -0.2886253311
 C          0.7050790164       -0.7944784999       -1.3181008251
 C         -0.0507291359       -1.4317576088       -2.2890476917
 C          0.5390893550       -2.2372828380       -3.2439984418
 C          1.9211051214       -2.4260377497       -3.2226368587
 C          2.6911772887       -1.8043476441       -2.2699584341
 C          2.1040059175       -0.9658687071       -1.3072926331
 C         -0.9594747553       -0.8355568545        0.4605334603
 C         -0.4551927065       -1.9104224331        1.1748270802
 C         -1.2898022269       -2.7717949741        1.8605792233
 C         -2.6689476327       -2.5649993723        1.8226484223
 C         -3.1921552045       -1.5059368604        1.1211831215
 C         -2.3510948354       -0.6129586435        0.4362747863
 N         -2.8831351096        0.4524923236       -0.2560344161
 C         -4.2944416328        0.6434392574       -0.2452119545
 C         -5.0577838213        0.2440535064       -1.3478943365
 C         -6.4206924530        0.4346760190       -1.3367460997
 C         -7.0254557970        1.0311387314       -0.2339275856
 S         -8.8008674905        1.1801473796       -0.1811853918
 O         -9.2996477660        1.2564815536       -1.5304809000
 O         -9.1489762653        2.2269730639        0.7452297551
 C         -9.2585608834       -0.4006533856        0.5221582589
 C         -9.2807362383       -0.5478992077        1.8983400347
 C         -9.5520836430       -1.7904981748        2.4417116941
 C         -9.7914335740       -2.8739401460        1.6078011500
 C         -9.7667965624       -2.7155142582        0.2292390720
 C         -9.4955619531       -1.4745815913       -0.3182456907
 C         -6.2704505448        1.4279232139        0.8662765011
 C         -4.9072991306        1.2387225299        0.8628424282
 C         -2.0986233561        1.3428381550       -0.9561440161
 C         -2.6832487666        2.4339170061       -1.6209127621
 C         -1.9089289102        3.3215330657       -2.3278822774
 C         -0.5255883288        3.1535859470       -2.3915289245
 C          0.0610782930        2.0940529640       -1.7267339055
 C         -0.6990222739        1.1859152279       -1.0072611272
 C          4.9043654005       -1.4083675986        0.4989589363
 C          6.2669758240       -1.5947910862        0.4518523190
 H          9.1105209725       -0.9687383386        2.3467491344
 H          9.5961908117        0.9156633543        3.9052717241
 H         10.0267361674        3.1661612643        2.9949339448
 H          9.9811942702        3.5498385881        0.5598990677
 H          9.4928700602        1.6465148649       -0.9755583983
 H          7.0440869865        0.4742237511       -2.1127654129
 H          4.5734528240        0.8333865530       -2.0375149283
 H          4.2531163711        0.9750901572        1.4776829480
 H          3.3150819978        2.3792349610        3.2481918396
 H          0.8625603272        2.6989091113        3.4170368849
 H         -0.6214840802        1.6229612256        1.7704651532
 H         -1.1219395627       -1.2910701579       -2.2902549975
 H         -0.0647569817       -2.7217120482       -3.9945672666
 H          2.3900782715       -3.0648529999       -3.9544683155
 H          3.7578124800       -1.9629402389       -2.2526303020
 H          0.6131634709       -2.0707404712        1.1884566744
 H         -0.8789632006       -3.6007364857        2.4143757651
 H         -3.3304569307       -3.2396178935        2.3434303792
 H         -4.2600274965       -1.3559322050        1.0877703952
 H         -4.5657214428       -0.2072183760       -2.1965925034
 H         -7.0377629969        0.1525414161       -2.1743463916
 H         -9.1063932500        0.3181835830        2.5171284089
 H         -9.5811871218       -1.9171368171        3.5137053736
 H        -10.0046849852       -3.8430324536        2.0336844130
 H         -9.9625502529       -3.5595965364       -0.4151205999
 H         -9.4842297642       -1.3122369234       -1.3845053093
 H         -6.7738830379        1.9011485726        1.6936809037
 H         -4.3002163520        1.5476695074        1.7007444188
 H         -3.7513133202        2.5742106928       -1.5677258133
 H         -2.3756597633        4.1526058113       -2.8329441292
 H          0.0817147512        3.8481157222       -2.9496463171
 H          1.1330101096        1.9634300854       -1.7616254133
 H          4.2946371894       -1.9369465223        1.2165557570
 H          6.7675921204       -2.2809437054        1.1156158749
