  83
 
 C         11.9875568732       -0.0002287535       -0.0434757572
 C         11.6482180359        0.7626983670        1.0626968109
 C         10.3357698211        1.1396328805        1.2692428478
 C          9.3441464106        0.7501178328        0.3695924399
 C          7.9797849402        1.1782700018        0.6234718634
 N          7.6542894488        2.3186320033        1.1769796786
 N          6.3262709424        2.4018408245        1.2309119767
 C          5.8183367682        1.3111346921        0.7155598024
 C          4.3983154536        1.0250171457        0.6368525707
 C          3.8864442642       -0.2629819783        0.7829091833
 C          2.5260250221       -0.4815782675        0.7110603653
 C          1.6391850120        0.5735695877        0.5034047600
 C          0.1935968616        0.3318321354        0.4238918084
 C         -0.3087016670       -0.7878013249       -0.2394214766
 C         -1.6661353730       -1.0089873114       -0.3200614821
 C         -2.5689989949       -0.1158654122        0.2595857652
 C         -3.9862998504       -0.4142625502        0.1475750274
 N         -4.4556127628       -1.6373919816        0.1387450868
 C         -5.8043499627       -1.5220126330        0.0357305596
 C         -6.7709577306       -2.5659443766        0.0287346722
 C         -6.3898719286       -3.9064540386        0.1478350476
 C         -7.3393423046       -4.8970211166        0.1727776152
 C         -8.6871549141       -4.5549845722        0.0822575840
 C         -9.0724458820       -3.2404985177       -0.0406827281
 C         -8.1318140827       -2.1997119310       -0.0789297080
 C         -8.5038370150       -0.8047376465       -0.2417456721
 C         -9.8381891802       -0.4183885749       -0.4314523412
 C        -10.1972867978        0.8934485256       -0.6311644178
 C         -9.2230257452        1.8856914588       -0.6674964150
 C         -7.9050031909        1.5512113027       -0.4777379515
 C         -7.5205447320        0.2231639640       -0.2433233293
 C         -6.1701853101       -0.1787580353       -0.0396862829
 N         -4.9899638147        0.5251841019        0.0454171694
 C         -4.7953199326        1.9203291765        0.0345371077
 C         -5.2930720005        2.7016150501        1.0734680696
 C         -5.0699825910        4.0659504117        1.0706487327
 C         -4.3483286478        4.6521030200        0.0429371978
 C         -3.8502917019        3.8720372190       -0.9872565803
 C         -4.0712072015        2.5065740731       -0.9966680457
 C         -2.0703305686        0.9890968511        0.9478453762
 C         -0.7099970639        1.2091350035        1.0205876951
 C          2.1567533444        1.8635076107        0.3838570282
 C          3.5150168856        2.0882467168        0.4503100372
 N          6.8367365229        0.4820479481        0.3035731902
 C          6.7301974775       -0.7778780483       -0.3099371452
 C          7.3655595824       -1.8787290132        0.2540755802
 C          7.2577544654       -3.1141767151       -0.3571518817
 C          6.5177824808       -3.2557961411       -1.5197076740
 C          5.8839288723       -2.1571231668       -2.0767494382
 C          5.9885448945       -0.9152568412       -1.4783412875
 C          9.6937280029        0.0032734420       -0.7532326012
 C         11.0100784205       -0.3701572201       -0.9519492134
 H         13.0132669385       -0.2983930972       -0.2024894546
 H         12.4105012113        1.0637668338        1.7658837568
 H         10.0538793556        1.7382475161        2.1212256543
 H          4.5475625219       -1.0950567560        0.9761270506
 H          2.1418830186       -1.4819246162        0.8457377086
 H          0.3745549863       -1.4766754905       -0.7142190443
 H         -2.0567067487       -1.8736008905       -0.8335969832
 H         -5.3363648099       -4.1258593716        0.2256718087
 H         -7.0503167592       -5.9334358747        0.2667648307
 H         -9.4389969144       -5.3306541818        0.1089919024
 H        -10.1272000339       -3.0245895884       -0.1039801592
 H        -10.6168769638       -1.1638511262       -0.4328286605
 H        -11.2362099970        1.1521060483       -0.7737492915
 H         -9.4999153373        2.9137692625       -0.8486661659
 H         -7.1520846812        2.3217608228       -0.5265624074
 H         -5.8522494218        2.2327116368        1.8701246278
 H         -5.4572423911        4.6720206016        1.8758248694
 H         -4.1741644136        5.7173529511        0.0464766027
 H         -3.2886814860        4.3274269758       -1.7888464123
 H         -3.6854152392        1.8884211613       -1.7936508097
 H         -2.7409298434        1.6681498164        1.4520148475
 H         -0.3398673880        2.0593433581        1.5744262792
 H          1.4854144458        2.6927895168        0.2163302922
 H          3.9185466176        3.0845459083        0.3589624193
 H          7.9381479772       -1.7579015634        1.1618553664
 H          7.7512478172       -3.9692697706        0.0792655727
 H          6.4350220439       -4.2228559992       -1.9918431541
 H          5.3080612432       -2.2648438451       -2.9834284176
 H          5.5004643241       -0.0516073220       -1.9055714943
 H          8.9454868703       -0.2709094664       -1.4824645450
 H         11.2734122012       -0.9496226284       -1.8246898107
