70
 xtb: 6.7.1 (edcfbbe)
C            6.36473424651111        0.04729555925805        0.10013518432732
C            4.99236773262744        0.02100366900138        0.79785944863380
C            5.17199892050548        0.01405438482232        2.32692192823440
C            4.26402889592442       -1.24593673502432        0.38915656446845
C            4.82303313972078       -2.48262968998509        0.68055198041954
C            4.20230824193074       -3.66920923679343        0.33537035283386
C            2.98466663954746       -3.63069332898852       -0.31940426207155
C            2.40741881858306       -2.41572022074733       -0.62314377405839
C            3.03537629021269       -1.21550597062386       -0.27840955247759
N            2.43181303014734       -0.01157673899635       -0.59958216370707
C            1.20036181295945       -0.02621209637356       -1.30922010696968
C            1.19982853610455       -0.05689629390843       -2.69899872152454
C           -0.00013384265532       -0.07266060177566       -3.38824074714467
C           -1.20001886497780       -0.05684653279836       -2.69886675962559
C           -1.20040009829449       -0.02616343218729       -1.30908793613126
N           -2.43177863345440       -0.01146562895246       -0.59932686511700
C           -2.99825490128340        1.20863156221394       -0.26559339185167
C           -2.33842741672997        2.39286337059128       -0.60590808891557
C           -2.87728165206721        3.62161691528505       -0.28759053494172
C           -4.08893356398918        3.69028395343581        0.37575970427968
C           -4.74412196383063        2.51959175136573        0.71134784216975
C           -4.22403937236828        1.26952974391705        0.40519145040124
C           -4.99235870166268        0.02130310046008        0.79806467648042
C           -6.36469404829971        0.04813470509645        0.10029240863443
C           -5.17205496471910        0.01393056986946        2.32711767595864
C           -4.26429481951808       -1.24568847381119        0.38902426402017
C           -4.82358488390158       -2.48233959045756        0.68005710238138
C           -4.20311123390609       -3.66896265598278        0.33456933954669
C           -2.98542191263290       -3.63053524540136       -0.32012184674288
C           -2.40789246530324       -2.41560455342472       -0.62350356582892
C           -3.03561498935996       -1.21534533024441       -0.27849612184248
C            0.00001964160362       -0.01142192293946       -0.61212714160189
C            2.99856428281148        1.20847896235202       -0.26619594886084
C            2.33899077319632        2.39276048787614       -0.60682634527177
C            2.87812382882313        3.62148134987158       -0.28886234678676
C            4.08979910937629        3.69006360723957        0.37445412288136
C            4.74472647918854        2.51932119095040        0.71037258879730
C            4.22436256078422        1.26929113559453        0.40457256128877
H            6.23067895842517        0.01548643766064       -0.98010666452303
H            6.94353706976768       -0.86407232067902        0.37251660850141
H            6.93512229549836        0.89701215576426        0.37561656589152
H            4.19833705316041       -0.00091119903744        2.81341015499554
H            5.71423100922431        0.88701164849516        2.65543925947873
H            5.72283765116822       -0.87340148638691        2.65244406297968
H            5.74402837990152       -2.54936601008486        1.20480665986365
H            4.61617621525165       -4.62469493866171        0.59621779761977
H            2.43537966068278       -4.53793927708804       -0.58212626901852
H            1.43531560163084       -2.37603095649939       -1.13152527283863
H            2.14110009695272       -0.02178135920663       -3.22758997234396
H           -0.00019212755386       -0.03037540457380       -4.46772152974882
H           -2.14134636915863       -0.02165301766617       -3.22735539979411
H           -1.41599169737074        2.36126145708128       -1.12995266306726
H           -2.39478174896762        4.53083841298551       -0.57282710284805
H           -4.57211104098352        4.63468557908096        0.61058839764736
H           -5.71872655672670        2.56830509324566        1.21452246971043
H           -6.93494371682528        0.89782368646051        0.37596797695893
H           -6.23059242463389        0.01650155700977       -0.97993792111094
H           -6.94366691415151       -0.86326402923336        0.37243406686197
H           -5.72311903114774       -0.87326570186175        2.65243071969556
H           -4.19840960080052       -0.00118267390798        2.81365260154233
H           -5.71407900740835        0.88714185699002        2.65580995588074
H           -5.74450475036025       -2.54894659993604        1.20449134181824
H           -4.61700764980620       -4.62436424714659        0.59554705755622
H           -2.43613533964145       -4.53777995504537       -0.58266911071042
H           -1.43566150486258       -2.37594742608745       -1.13162596011129
H            0.00007992255476        0.00385965139950        0.46769480772491
H            1.41644663491826        2.36118034323867       -1.13064621098319
H            2.39565021586972        4.53068732873899       -0.57397027021554
H            4.57300840032152        4.63436536544027        0.60940543640291
H            5.71923480757635        2.56789267339494        1.21376164296235
