75
 xtb: 6.7.1 (edcfbbe)
C            5.39097409946780       -4.59319663269273        0.11998020183433
C            4.37943191560426       -4.10260231200016        0.93004926352967
C            3.95097115793601       -2.79538828076130        0.80203481382166
C            4.52802254159434       -1.95620707933228       -0.15160259952489
N            4.09580962547407       -0.63182882500382       -0.28635639622783
C            5.01544082827346        0.38416239414768       -0.56999193024853
C            4.66239809781094        1.44472181022236       -1.40531608231310
C            5.57065611163162        2.44942636454299       -1.67796857844929
C            6.84444529171793        2.41214056371710       -1.13366849465112
C            7.20190169153899        1.35951748029444       -0.30640406377023
C            6.29751666900904        0.35503007253153       -0.02027537066422
C            2.73919764273546       -0.31853384715671       -0.12532080154826
C            1.75780135221083       -1.17860421620144       -0.62328778675594
C            0.41119187079481       -0.88910023869940       -0.47343882900875
C            0.04558016446036        0.27448981175458        0.16820238475141
C            1.02369077156260        1.14665910267544        0.66759281809069
C            2.36762908151985        0.85569450071344        0.53151251573599
C            0.35617230813522        2.27860574842437        1.29345515321540
C            0.86572518541082        3.39977137020041        1.92763497520745
C           -0.02240262313381        4.33281473787083        2.43949068741572
C           -1.39223504628135        4.15078506151803        2.32095325368031
C           -1.90783874676915        3.02924942214479        1.68429541421096
C           -1.02929535651199        2.09878293263163        1.17389931121729
C           -1.34708684056956        0.80771700009723        0.44165441152742
C           -2.06906263715151        1.09847498089428       -0.85352362142416
C           -1.46847960489638        1.94153640138175       -1.77643270827790
C           -2.07775853051227        2.24286956982051       -2.98076308620712
C           -3.31181702529671        1.68582526028330       -3.27091444209229
C           -3.92463026051141        0.84354854977032       -2.36558639611066
C           -3.31773524514615        0.54067303400555       -1.14298786936642
N           -3.94590541931118       -0.30415212685093       -0.24274607860806
C           -5.21775739353304       -0.85267552359239       -0.58162345789807
C           -5.29528031338231       -2.11878712818738       -1.15858747844087
C           -6.53150791821012       -2.64768044183688       -1.48686333837865
C           -7.68825400358377       -1.91500538657846       -1.24484421208695
C           -7.61032821957279       -0.65275859294995       -0.66893550696645
C           -6.37731116156461       -0.11977531433123       -0.33509235803986
C           -3.36814311445061       -0.64164764683434        0.96978923495302
C           -4.03637800045791       -1.49297845908363        1.85495875718984
C           -3.47202361520895       -1.83992446898024        3.06561290080823
C           -2.22899563071256       -1.34542991273520        3.42308027775515
C           -1.56608237277311       -0.49628813232501        2.55583808402939
C           -2.11755696237636       -0.13510144434349        1.33569299512567
C            5.54148121139016       -2.45746092101415       -0.96901749340262
C            5.96902637083716       -3.76356720274997       -0.82754603204910
H            5.72388916984686       -5.61462639841394        0.24001906932315
H            3.92231942417158       -4.73712257875809        1.68552383138982
H            3.16563543633936       -2.41069201949018        1.44609506857487
H            3.67761124653656        1.47032255566581       -1.83955755260594
H            5.28976047638297        3.25933235641631       -2.32830186497640
H            7.55726893536124        3.19335098414601       -1.34877139709564
H            8.19214561947151        1.32119278669728        0.13408838548493
H            6.57611349458935       -0.45956312488297        0.63991368816247
H            2.06316031290284       -2.08241326155020       -1.13109155602831
H           -0.33462237024010       -1.56463497534286       -0.86646931275031
H            3.12430999195529        1.52033937300190        0.92138297286785
H            1.93051089075680        3.54899035041621        2.01422391449931
H            0.35413703067513        5.21859847689895        2.92675995702564
H           -2.06852497206538        4.89506680099808        2.71528818794293
H           -2.97660658349297        2.89304517195048        1.58134260196628
H           -0.50297417624321        2.36224750392881       -1.54968515202142
H           -1.59803831894684        2.90146900994190       -3.69049593007217
H           -3.81372555042447        1.91505757210152       -4.20494647032683
H           -4.89579342337905        0.42439102837197       -2.59802458179066
H           -4.38874657341008       -2.61155810832017       -1.46704842470886
H           -6.59559367626963       -3.56369630546504       -2.04999186682330
H           -8.65650877260713       -2.32888847536710       -1.48723710456027
H           -8.51449520264859       -0.14785849536903       -0.34143478147426
H           -6.30517631314441        0.79836717461520        0.24000126855473
H           -4.99612354933371       -1.89725287119314        1.57950261426899
H           -3.99453823130013       -2.51388304644497        3.72253603194165
H           -1.77441966826729       -1.61498769286883        4.36259015002494
H           -0.59621646719538       -0.09428863941339        2.82195713085269
H            5.98968822650881       -1.81998758263228       -1.70763594864380
H            6.75473561571785       -4.14243721544450       -1.45571504171177
