  60
 
 C         -6.4610350934       -4.1531825591       -0.4062515691
 C         -5.4604862853       -3.6507185325       -1.2228482120
 C         -5.0431319072       -2.3396234796       -1.0919333370
 C         -5.6218904777       -1.5145031274       -0.1288813532
 N         -5.2113262629       -0.1765871732        0.0050910507
 C         -6.1894406211        0.8097029131        0.2178105514
 C         -7.4083246688        0.7435615509       -0.4554852127
 C         -8.3772734194        1.7038321066       -0.2340168995
 C         -8.1446256113        2.7431989991        0.6522805812
 C         -6.9337220959        2.8133971601        1.3224982505
 C         -5.9616974497        1.8532688334        1.1139577577
 C         -3.8707295552        0.1606296573       -0.0777412071
 C         -2.8758412382       -0.7356997376        0.3344076809
 C         -1.5479439873       -0.3954594893        0.2497001657
 C         -1.1445600348        0.8527956056       -0.2463293271
 C          0.2695825701        1.1615575834       -0.3168823373
 C          0.7873736841        2.4061376283       -0.6702789763
 N          2.0891635398        2.6342108100       -0.7306868733
 C          2.9622721582        1.6888858216       -0.4542553485
 N          4.2597639841        1.8887463248       -0.5212283189
 C          5.0871840438        0.8958526601       -0.2244151048
 C          4.5871793550       -0.3759435269        0.1708447403
 N          3.2861443392       -0.6092216284        0.2457946642
 C          2.4345950073        0.3563223007       -0.0540324373
 N          1.1435325658        0.1807140544       -0.0137995410
 C          5.7120749124       -1.2529575830        0.4272069502
 C          5.8747248672       -2.5584811898        0.8250421205
 C          7.1858993553       -3.0564483014        0.9530514627
 C          8.3035037723       -2.2968617459        0.6987383208
 C          8.1720218722       -0.9487506485        0.2885983541
 C          9.1968238156       -0.0213236757       -0.0170316776
 C          8.8793487720        1.2596280692       -0.4024253717
 C          7.5531699384        1.7203754621       -0.5164579090
 C          6.5340250917        0.8440148097       -0.2292504746
 C          6.8669701319       -0.4742510919        0.1694436267
 C         -2.1418408909        1.7437415646       -0.6610572482
 C         -3.4724262214        1.4065960268       -0.5793163723
 C         -6.6274382467       -2.0235735943        0.6910977461
 C         -7.0430832744       -3.3338717098        0.5476678728
 H         -6.7858756865       -5.1770674652       -0.5137589338
 H         -5.0067108908       -4.2807782088       -1.9737376762
 H         -4.2710236180       -1.9447494088       -1.7361999359
 H         -7.5879292875       -0.0625351783       -1.1516381063
 H         -9.3170007701        1.6432576870       -0.7629508873
 H         -8.9025284334        3.4933647684        0.8205442216
 H         -6.7467131198        3.6163742356        2.0204076349
 H         -5.0229538427        1.9024615094        1.6463260810
 H         -3.1596467904       -1.6979588905        0.7334865896
 H         -0.7855932024       -1.0853520458        0.5776473012
 H          0.1597652738        3.2503971778       -0.9068131137
 H          5.0274528086       -3.1934063863        1.0346331866
 H          7.3088681960       -4.0833834326        1.2650215324
 H          9.2883533353       -2.7254800613        0.8104974941
 H         10.2300703015       -0.3268511778        0.0543766478
 H          9.6767119908        1.9518987324       -0.6305761340
 H          7.3534951254        2.7358211818       -0.8231024343
 H         -1.8770654993        2.7052719611       -1.0720620594
 H         -4.2225321022        2.1047321588       -0.9194989386
 H         -7.0769419658       -1.3862277753        1.4384200193
 H         -7.8215604917       -3.7186626555        1.1898841605
