  86
 
 C         -8.1440505727       -2.0495998078       -0.3401820605
 C         -7.0508746693       -2.6414039435       -1.2300375197
 N         -5.7616762776       -2.6091417877       -0.5895187932
 C         -5.2310229500       -3.5984879923        0.2042776284
 C         -5.7457310723       -4.8456630643        0.5340330030
 C         -4.9906624457       -5.6626938221        1.3534952153
 C         -3.7489900522       -5.2586350419        1.8411536890
 C         -3.2306975684       -4.0195100900        1.5210794338
 C         -3.9717648746       -3.1797153926        0.6997381611
 C         -3.7553670244       -1.8577103681        0.1841315342
 C         -2.7267720983       -0.9385893709        0.3201326504
 C         -2.8362724944        0.2986475038       -0.3031234191
 C         -1.7525643523        1.2871850089       -0.1708819066
 C         -1.9877934109        2.5964516186        0.0791802455
 C         -0.9292828624        3.6175421199       -0.0037990238
 C         -0.0559162589        3.6600634952       -1.0896864192
 C          0.9225952476        4.6331203391       -1.1664230531
 C          1.0446397369        5.5808374990       -0.1628095414
 C          0.1720215154        5.5572202679        0.9130555892
 C         -0.8118786222        4.5890211828        0.9891596300
 C         -3.3214283462        3.1049648762        0.4421354058
 C         -3.8087651580        4.2739424022       -0.1405784561
 C         -5.0528317968        4.7675128630        0.2060000625
 C         -5.8239290949        4.1105657226        1.1509645001
 C         -5.3396777620        2.9594399240        1.7518192705
 C         -4.0995729027        2.4597113717        1.4022269036
 C         -0.3916201618        0.7559705225       -0.3376129883
 C         -0.1105031605       -0.1527856413       -1.3582755234
 C          1.1623603791       -0.6574620301       -1.5256751800
 C          2.1983910055       -0.2712429016       -0.6744199353
 C          3.5603545712       -0.7778014450       -0.8708264749
 C          3.7941472253       -2.0984417129       -1.2653177428
 C          5.0817176351       -2.5696033015       -1.4523628311
 C          6.1578564130       -1.7200543828       -1.2578884609
 C          5.9400715080       -0.4125685377       -0.8657959326
 C          4.6607111554        0.0607799736       -0.6649027885
 S          7.3449557434        0.6677085882       -0.5997364711
 O          7.9269665929        1.0366164558       -1.8643880563
 O          6.9243810455        1.7594453519        0.2484683621
 C          8.5034902394       -0.3445603023        0.3234747576
 C          9.1614956682        0.1746681730        1.4242632008
 C         10.0511803241       -0.6263621633        2.1259561766
 C         10.2683151752       -1.9384562406        1.7320824859
 C          9.5965274870       -2.4579713878        0.6346045047
 C          8.7188751889       -1.6517613841       -0.0682346727
 S          7.8342886809       -2.2985180587       -1.4893250057
 O          8.3857468721       -1.7354841772       -2.6951210392
 O          7.8351097815       -3.7410241222       -1.4039906325
 C          1.9117462414        0.6153037870        0.3650247833
 C          0.6375099444        1.1133078203        0.5345630543
 C         -3.9650370563        0.5856245037       -1.0852167908
 C         -4.9937543140       -0.3181115528       -1.2427501552
 C         -4.8940290783       -1.5455599358       -0.5985915851
 H         -7.9150022933       -1.0138236362       -0.0997869181
 H         -9.1020276456       -2.0875996632       -0.8519954384
 H         -8.2197285629       -2.6105066113        0.5886437551
 H         -7.2878029180       -3.6799895548       -1.4747555308
 H         -6.9851953639       -2.0793766135       -2.1658650146
 H         -6.7071370576       -5.1755965936        0.1700369351
 H         -5.3717033689       -6.6370797348        1.6241563733
 H         -3.1896364338       -5.9270971630        2.4796351620
 H         -2.2695118589       -3.7053621960        1.9005908953
 H         -1.8587973560       -1.1717268971        0.9196614094
 H         -0.1564918344        2.9320519729       -1.8814521317
 H          1.5924326805        4.6546973271       -2.0143280986
 H          1.8128643967        6.3380793483       -0.2223774864
 H          0.2582635260        6.2978026116        1.6953995183
 H         -1.4905060498        4.5715842714        1.8306066878
 H         -3.2092454448        4.7878141509       -0.8791982859
 H         -5.4218041594        5.6695043949       -0.2614262312
 H         -6.7953754772        4.4974746249        1.4226478587
 H         -5.9314728623        2.4502283082        2.4991613116
 H         -3.7208426191        1.5688581558        1.8813473639
 H         -0.8996319420       -0.4470602564       -2.0351119199
 H          1.3656043002       -1.3308741625       -2.3445443421
 H          2.9592171689       -2.7672591844       -1.4053273929
 H          5.2787600773       -3.5908347686       -1.7384305557
 H          4.5376939835        1.0884528690       -0.3610034340
 H          8.9568535164        1.1938997804        1.7119624688
 H         10.5699579294       -0.2248141019        2.9824663320
 H         10.9572108424       -2.5618848450        2.2804820587
 H          9.7286654288       -3.4783380897        0.3108011299
 H          2.6905490508        0.8943891237        1.0585863215
 H          0.4290061348        1.7836075127        1.3546866483
 H         -4.0197919573        1.5405584383       -1.5864966606
 H         -5.8483627698       -0.0665092301       -1.8523195772
