  99
 
 C         -6.8018498256        5.4388922388        0.1001416521
 C         -5.5127130182        5.6848316356        0.5576847271
 C         -4.5119912723        4.7615170033        0.3510388396
 C         -4.7809361413        3.5597172228       -0.3216223305
 C         -3.7462895355        2.5848378012       -0.5317334586
 N         -4.0591692066        1.4222917890       -1.1855518239
 C         -3.0700754692        0.5637044676       -1.3671689630
 C         -3.3911992511       -0.6954979728       -2.0525289177
 C         -2.3898394796       -1.4316837190       -2.6797063108
 C         -2.6978936511       -2.6211545421       -3.3138493346
 C         -4.0031854295       -3.0877054314       -3.3224731833
 C         -5.0038561912       -2.3554842280       -2.7030873603
 C         -4.7027329907       -1.1623268643       -2.0746951080
 N         -1.8247169915        0.7497542433       -0.9810386436
 C         -1.5682833690        1.9086782716       -0.2866500690
 C         -0.2682246194        2.0951573090        0.2824569581
 C          0.0201813534        3.1890383501        1.1191484265
 C          1.2537945636        3.2901333384        1.7210303049
 C          2.2210446384        2.3102384819        1.5343723770
 C          1.9581835649        1.2158624772        0.7046192342
 C          2.9652719187        0.1542117520        0.5258529379
 C          4.2933108261        0.4924877697        0.3018601033
 C          5.2589194201       -0.4874032007        0.0977362328
 N          6.5905062288       -0.1219844809       -0.1367269077
 C          7.0217030591        0.8060705409       -1.0636550946
 C          6.2889676471        1.5389348889       -1.9883625403
 C          6.9811568431        2.3891358050       -2.8310871498
 C          8.3677480055        2.5050080781       -2.7680875918
 C          9.1051032779        1.7579211863       -1.8667793386
 C          8.4325755853        0.8988484585       -1.0101856009
 C          8.8635578145       -0.0193507782        0.0110443745
 C         10.1045177291       -0.3542393604        0.5326140527
 C         10.1632398299       -1.2825784477        1.5568642574
 C          9.0041318774       -1.8613835425        2.0682800821
 C          7.7562524458       -1.5428758713        1.5649481463
 C          7.6933324073       -0.6302959591        0.5199515126
 C          4.8922996174       -1.8321861652        0.1119274677
 C          3.5743052886       -2.1763203295        0.3346440889
 C          2.6037868413       -1.2044434014        0.5568965687
 C          1.2057719889       -1.5891279268        0.8033107866
 C          0.5320758173       -1.1532840253        1.9440051850
 C         -0.8199076768       -1.3742827628        2.0904091671
 C         -1.5410734927       -2.0018852007        1.0730825823
 N         -2.9340940747       -2.0734462356        1.1324197738
 C         -3.7175820078       -3.1439835532        0.7413556898
 C         -3.3461024441       -4.4393493228        0.4060622716
 C         -4.3475457236       -5.3385890403        0.0882650207
 C         -5.6899181293       -4.9712462802        0.1149366125
 C         -6.0689645180       -3.6934918953        0.4844332282
 C         -5.0807835381       -2.7751529664        0.8055409560
 C         -5.1142239479       -1.4089526555        1.2547501472
 C         -6.1455658321       -0.5107641524        1.4855758063
 C         -5.8304909713        0.7658390794        1.9128881543
 C         -4.5052685271        1.1486211751        2.0978695106
 C         -3.4612897554        0.2715529329        1.8667895309
 C         -3.7700668713       -1.0164091555        1.4510356907
 C         -0.8547915859       -2.5258082633       -0.0217613439
 C          0.5057306464       -2.3373345404       -0.1416479589
 C          0.7330307345        1.1381350093        0.0634154147
 N         -2.5225718636        2.8099761980       -0.0919509489
 C         -6.0852258909        3.3232431933       -0.7804252604
 C         -7.0789918570        4.2540843891       -0.5700344720
 H         -7.5832779763        6.1659857515        0.2639427335
 H         -5.2939321144        6.6067939831        1.0780048067
 H         -3.5063230173        4.9433616040        0.7007385872
 H         -1.3789783322       -1.0523869967       -2.6636490405
 H         -1.9179404048       -3.1868842854       -3.8028270124
 H         -4.2410811680       -4.0193855846       -3.8136773125
 H         -6.0214895150       -2.7160421878       -2.7106456148
 H         -5.4687082657       -0.5790697946       -1.5866557666
 H         -0.7450819280        3.9327731933        1.2832039657
 H          1.4684441260        4.1324722640        2.3637732791
 H          3.1660200383        2.3800382375        2.0518694733
 H          4.5799433858        1.5331622653        0.2838753208
 H          5.2160211977        1.4441179670       -2.0572078622
 H          6.4336314919        2.9734395573       -3.5557844015
 H          8.8721116811        3.1820564245       -3.4414412806
 H         10.1810081654        1.8368972517       -1.8314798392
 H         11.0029508920        0.1055999402        0.1498613635
 H         11.1199800431       -1.5577832806        1.9751696011
 H          9.0809041122       -2.5705319762        2.8791498123
 H          6.8619882246       -1.9814289016        1.9802542018
 H          5.6344436676       -2.5936073919       -0.0728829922
 H          3.2869391865       -3.2172167514        0.3504390846
 H          1.0761759065       -0.6300730166        2.7161273952
 H         -1.3267876283       -1.0565383345        2.9887125560
 H         -2.3124779318       -4.7472063012        0.4104466390
 H         -4.0810442533       -6.3499427880       -0.1797824414
 H         -6.4437337643       -5.7002948280       -0.1416826366
 H         -7.1104527272       -3.4142452055        0.5300832794
 H         -7.1725969562       -0.8028306236        1.3271658356
 H         -6.6156833972        1.4842539373        2.0944719395
 H         -4.2850166077        2.1559426562        2.4197308742
 H         -2.4395406368        0.6017049997        1.9777382094
 H         -1.4050725640       -3.0199789478       -0.8061614052
 H          1.0217097378       -2.7061843238       -1.0159019666
 H          0.5135495740        0.3363340058       -0.6234749291
 H         -6.2861829501        2.3980510393       -1.2993214332
 H         -8.0804034284        4.0613555693       -0.9285993521
