70

C     -4.950658   -0.937565   -0.700386
C     -5.952553   -0.194046   -0.175878
C     -5.689367    1.068318    0.563532
C     -6.286509    2.260827    0.131844
C     -6.068527    3.454326    0.823623
C     -5.258195    3.465532    1.957482
C     -4.669451    2.283866    2.403898
C     -4.888338    1.089553    1.714004
C     -7.332678   -0.722558   -0.357040
C     -7.843042   -1.010186   -1.632130
C     -9.146769   -1.487922   -1.783964
C     -9.955417   -1.676377   -0.664746
C     -9.463826   -1.384115    0.606129
C     -8.160269   -0.906365    0.759326
C     -3.511224   -0.636979   -0.703170
C     -3.007856    0.542652   -1.257966
C     -1.631330    0.793103   -1.262066
C     -0.723812   -0.133389   -0.724828
C      0.723867    0.133405   -0.724873
C      1.240692    1.323160   -0.187565
C      2.617137    1.575070   -0.180356
C      3.511289    0.636940   -0.703334
C      4.950735    0.937466   -0.700571
C      5.952578    0.193985   -0.175910
C      7.332714    0.722436   -0.357110
C      7.843230    1.009521   -1.632259
C      9.146959    1.487235   -1.784126
C      9.955444    1.676220   -0.664880
C      9.463693    1.384502    0.606060
C      8.160137    0.906765    0.759291
C      5.689340   -1.068259    0.563681
C      4.888262   -1.089306    1.714124
C      4.669312   -2.283513    2.404182
C      5.258039   -3.465261    1.957960
C      6.068419   -3.454243    0.824133
C      6.286464   -2.260849    0.132191
C      3.007889   -0.542762   -1.257950
C      1.631359   -0.793183   -1.261992
C     -1.240608   -1.323067   -0.187318
C     -2.617046   -1.575005   -0.180051
H     -5.181897   -1.885246   -1.186478
H     -6.924358    2.266372   -0.749085
H     -6.533387    4.373623    0.477633
H     -5.088166    4.394451    2.495321
H     -4.039812    2.289337    3.289553
H     -4.427281    0.174657    2.078401
H     -7.230401   -0.854890   -2.517237
H     -9.531459   -1.708479   -2.776204
H    -10.970377   -2.046767   -0.782965
H    -10.094692   -1.525176    1.479788
H     -7.792721   -0.679954    1.757854
H     -3.680647    1.279892   -1.689594
H     -1.270533    1.720551   -1.702112
H      0.569957    2.063064    0.244939
H      2.983140    2.504950    0.248618
H      5.182036    1.885056   -1.186812
H      7.230701    0.853816   -2.517371
H      9.531778    1.707369   -2.776410
H     10.970405    2.046602   -0.783123
H     10.094435    1.525982    1.479740
H      7.792452    0.680780    1.757864
H      4.427216   -0.174344    2.078371
H      4.039637   -2.288841    3.289812
H      5.087957   -4.394097    2.495927
H      6.533267   -4.373602    0.478291
H      6.924348   -2.266542   -0.748712
H      3.680658   -1.280085   -1.689469
H      1.270536   -1.720692   -1.701889
H     -0.569851   -2.062891    0.245290
H     -2.983024   -2.504829    0.249068
