  75
 
 N         -0.0000162855        1.1006478002       -0.7231352791
 C         -0.0000079189       -0.0025049854       -0.4000026253
 C         -0.0000099286       -1.3776326368       -0.1054622647
 C          1.2042255998       -2.1125354983       -0.0266050719
 C          2.5186704609       -1.4860132614        0.0101678353
 C          2.7366391161       -0.2389668380        0.5985689182
 C          3.9939435068        0.3196371717        0.6136759054
 C          5.0789134110       -0.3445538691        0.0320089665
 N          6.3408341490        0.2328350410        0.0263513043
 C          7.4919795132       -0.5678302616        0.0828589330
 C          7.5347033440       -1.6888610073        0.9103393415
 C          8.6736668145       -2.4688898509        0.9639528912
 C          9.7851295683       -2.1406034272        0.2050628066
 C          9.7491115200       -1.0235783879       -0.6133886370
 C          8.6120400014       -0.2417640360       -0.6799642617
 C          6.4858119443        1.6274241235       -0.0438290502
 C          5.6456380052        2.3880101182       -0.8554579107
 C          5.7999277551        3.7592986314       -0.9213475506
 C          6.7945555473        4.3894865257       -0.1915284542
 C          7.6356023145        3.6364676875        0.6111593783
 C          7.4837961836        2.2655365822        0.6906903220
 C          4.8649388899       -1.6054287228       -0.5366821131
 C          3.6104885498       -2.1671486878       -0.5352570738
 N          1.1766548145       -3.4457436641       -0.0028002612
 C         -0.0000207783       -4.0341172305       -0.0276485126
 N         -1.1766907289       -3.4457335624       -0.0027740800
 C         -1.2042506336       -2.1125253748       -0.0265816680
 C         -2.5186900055       -1.4859926656        0.0102113790
 C         -2.7366429180       -0.2389468206        0.5986195775
 C         -3.9939419482        0.3196690529        0.6137356218
 C         -5.0789212139       -0.3445082610        0.0320701996
 N         -6.3408339656        0.2328983970        0.0264125750
 C         -6.4857889481        1.6274892934       -0.0437768973
 C         -7.4837663982        2.2656232828        0.6907329395
 C         -7.6355462462        3.6365569809        0.6111951588
 C         -6.7944782373        4.3895572300       -0.1914879674
 C         -5.7998581095        3.7593476032       -0.9212988425
 C         -5.6455966169        2.3880562547       -0.8554046560
 C         -7.4919917316       -0.5677492035        0.0829161951
 C         -8.6120434016       -0.2416669190       -0.6799131257
 C         -9.7491286783       -1.0234613600       -0.6133394497
 C         -9.7851699249       -2.1404817683        0.2051173000
 C         -8.6737157117       -2.4687847319        0.9640127615
 C         -7.5347377189       -1.6887769153        0.9103996077
 C         -4.8649635077       -1.6053850049       -0.5366224975
 C         -3.6105185175       -2.1671171115       -0.5352060767
 H          1.9253089322        0.2836017344        1.0818819881
 H          4.1504199317        1.2766150784        1.0884268427
 H          6.6727414645       -1.9391894421        1.5112773487
 H          8.6958391478       -3.3341153814        1.6098774609
 H         10.6741640876       -2.7508395723        0.2520909255
 H         10.6100375895       -0.7625835890       -1.2109128976
 H          8.5818862437        0.6250014215       -1.3238529522
 H          4.8760320093        1.8980856966       -1.4335501210
 H          5.1431175006        4.3376981865       -1.5537963594
 H          6.9139222431        5.4607040345       -0.2484645088
 H          8.4112796881        4.1200435008        1.1864069234
 H          8.1350800689        1.6799087398        1.3230045865
 H          5.6923384394       -2.1311189381       -0.9895725890
 H          3.4442955835       -3.1363708011       -0.9789872712
 H         -0.0000257535       -5.1171280388       -0.0491084109
 H         -1.9253040578        0.2836135073        1.0819270749
 H         -4.1504064753        1.2766475234        1.0884894465
 H         -8.1350639157        1.6800106440        1.3230472431
 H         -8.4112154925        4.1201503305        1.1864388322
 H         -6.9138238115        5.4607767872       -0.2484283362
 H         -5.1430362148        4.3377314436       -1.5537498868
 H         -4.8759987154        1.8981146256       -1.4334930083
 H         -8.5818720980        0.6250959479       -1.3238044782
 H        -10.6100479228       -0.7624534123       -1.2108678384
 H        -10.6742152114       -2.7507023792        0.2521441285
 H         -8.6959045240       -3.3340096506        1.6099375993
 H         -6.6727818820       -1.9391194812        1.5113403899
 H         -5.6923711120       -2.1310662482       -0.9895085932
 H         -3.4443376785       -3.1363399808       -0.9789391297
