  80
 
 C         -5.5938514413        0.0217581539        3.1344267034
 C         -5.9342364659        0.0117794934        1.6321728065
 C         -7.4616569673        0.0111465806        1.4332782870
 C         -5.3625933879       -1.2501145944        1.0119615001
 C         -5.7830253666       -2.4906555901        1.4724360615
 C         -5.2991987031       -3.6740690402        0.9447038275
 C         -4.3653865961       -3.6284633359       -0.0748290899
 C         -3.9286159695       -2.4095207107       -0.5505223959
 C         -4.4175569540       -1.2128234566       -0.0186999389
 N         -3.9580358201       -0.0035492866       -0.5188466062
 C         -3.0031376979       -0.0110778156       -1.5724693606
 C         -3.4369891657       -0.0206748818       -2.8933585291
 C         -2.5212745003       -0.0285480856       -3.9390762450
 C         -1.1748852174       -0.0265497414       -3.6334590877
 C         -0.7321447680       -0.0166669042       -2.2966941740
 C         -1.6395061054       -0.0087998737       -1.2600615742
 C          0.7324972525       -0.0166800109       -2.2967031393
 C          1.6398702980       -0.0088480699       -1.2600824200
 C          3.0034992139       -0.0111370058       -1.5725011647
 N          3.9583763041       -0.0036455841       -0.5188598942
 C          4.4157462368        1.2126127774       -0.0339353598
 C          3.9245304678        2.4016352575       -0.5806361127
 C          4.3600221389        3.6272527587       -0.1212422121
 C          5.2949103183        3.6873533501        0.8965479311
 C          5.7805363793        2.5115541262        1.4394368562
 C          5.3612511057        1.2645630747        0.9956433946
 C          5.9339134088        0.0116052297        1.6327657487
 C          7.4613960869        0.0107389349        1.4343449291
 C          5.5930517400        0.0217715490        3.1349104672
 C          5.3622873022       -1.2502662712        1.0124948533
 C          5.7824100054       -2.4908236452        1.4732079500
 C          5.2986169329       -3.6742182176        0.9454019692
 C          4.3651739386       -3.6285765060       -0.0744674254
 C          3.9287045154       -2.4096163043       -0.5503933673
 C          4.4175860286       -1.2129383132       -0.0184723126
 C          3.4373411306       -0.0207088020       -2.8933935113
 C          2.5216131622       -0.0285627683       -3.9391011754
 C          1.1752261819       -0.0265579410       -3.6334719583
 C          0.0001655696       -0.0333809979       -4.5408865086
 O          0.0001583204       -0.0423023201       -5.7552533664
 C         -4.4154042137        1.2127279720       -0.0339660621
 C         -3.9239007716        2.4017324814       -0.5804470857
 C         -4.3593616495        3.6273680511       -0.1210723542
 C         -5.2945185492        3.6875059043        0.8964687243
 C         -5.7804517799        2.5117242590        1.4391199530
 C         -5.3611993025        1.2647158825        0.9953442338
 H         -6.0015532256       -0.8550691778        3.6297299204
 H         -6.0005703758        0.9057165073        3.6177315897
 H         -4.5136919423        0.0221124954        3.2708963769
 H         -7.9119083764       -0.8654703242        1.8906072412
 H         -7.9109898650        0.8947837615        1.8778060937
 H         -7.6976874056        0.0035614993        0.3703524121
 H         -6.5112698562       -2.5422186290        2.2676463057
 H         -5.6496174017       -4.6212598408        1.3265474867
 H         -3.9740019309       -4.5401330589       -0.5021740562
 H         -3.1996477871       -2.3807385515       -1.3461202067
 H         -4.4974111426       -0.0220135357       -3.0964567805
 H         -2.8492567641       -0.0359491658       -4.9674705990
 H         -1.3259698819       -0.0011648163       -0.2274275549
 H          1.3263459487       -0.0012347457       -0.2274445910
 H          3.1946952496        2.3614952471       -1.3749053585
 H          3.9669700014        4.5327591684       -0.5600140357
 H          5.6446307522        4.6398791164        1.2655245382
 H          6.5093316386        2.5744760763        2.2333256941
 H          7.9107176548        0.8943349629        1.8789656255
 H          7.6977560882        0.0030612788        0.3714919705
 H          7.9113756017       -0.8659181954        1.8918631164
 H          4.5128483035        0.0222710707        3.2710412153
 H          5.9997248828        0.9057287104        3.6182535529
 H          6.0004920316       -0.8550550078        3.6304301583
 H          6.5103749204       -2.5424159022        2.2686724984
 H          5.6487706169       -4.6214232348        1.3274540478
 H          3.9738255126       -4.5402309550       -0.5018784197
 H          3.2000281963       -2.3808044135       -1.3462577754
 H          4.4977607692       -0.0220469196       -3.0965033415
 H          2.8495840622       -0.0359494675       -4.9674994489
 H         -3.1938656627        2.3615642885       -1.3745310514
 H         -3.9660733890        4.5328600291       -0.5596622102
 H         -5.6442119671        4.6400465173        1.2654325437
 H         -6.5094589027        2.5746734499        2.2328122769
