  44
 
 C         -5.6795066581        0.0000253137        0.0011970295
 C         -4.9827017312       -0.6332088341       -1.0155156781
 C         -3.6013084849       -0.6395401874       -1.0143703076
 C         -2.8865033133       -0.0000494373        0.0009447846
 C         -1.4226626886       -0.0000731635        0.0008072415
 C         -0.7130264588       -1.2413764130        0.0198551086
 C         -1.3779170281       -2.4656386835        0.1070130267
 C         -0.6844740521       -3.6756243738        0.0582280652
 C          0.6842251499       -3.6751458037       -0.0827732500
 C          1.3777036505       -2.4648662317       -0.1230311631
 C          0.7128522961       -1.2412290192       -0.0272320262
 C          1.4225212897       -0.0001064858        0.0005681642
 C          2.8863586645       -0.0001166729        0.0004313218
 C          3.6011517483       -0.6468524314        1.0111573971
 C          4.9825443272       -0.6405662051        1.0123455991
 C          5.6793656929       -0.0001075411        0.0001795166
 C          4.9823578153        0.6403443744       -1.0118624551
 C          3.6009658056        0.6466211528       -1.0104253669
 C          0.7128853220        1.2410346503        0.0284912009
 C          1.3777780393        2.4646540879        0.1241864678
 C          0.6843242311        3.6749439117        0.0840401553
 C         -0.6843966825        3.6754547742       -0.0567419140
 C         -1.3778732851        2.4654911614       -0.1054164264
 C         -0.7129999438        1.2412153370       -0.0183632090
 C         -3.6010917017        0.6394767325        1.0163902165
 C         -4.9824840755        0.6332199669        1.0177850739
 H         -6.7594020943        0.0000558597        0.0012930255
 H         -5.5199820923       -1.1231915575       -1.8147312585
 H         -3.0599062544       -1.1197319465       -1.8169826673
 H         -2.4513259265       -2.4807070193        0.2184233634
 H         -1.2313895800       -4.6046130155        0.1207055097
 H          1.2311147277       -4.6036864285       -0.1517972914
 H          2.4511104482       -2.4791842992       -0.2345599498
 H          3.0597398552       -1.1327395311        1.8103285432
 H          5.5198127245       -1.1362562606        1.8080423586
 H          6.7592612988       -0.0001020611        0.0000836655
 H          5.5194795614        1.1360395295       -1.8076546555
 H          3.0594066908        1.1325043422       -1.8094985689
 H          2.4512051466        2.4789457321        0.2355491776
 H          1.2312464495        4.6034745092        0.1529771346
 H         -1.2313005840        4.6044588408       -0.1191308304
 H         -2.4513014602        2.4805837617       -0.2166607897
 H         -3.0595182415        1.1196395156        1.8189045053
 H         -5.5195944805        1.1232326594        1.8170967489
