  76
 
 N         10.5534079292       -0.7279109226        0.9240915062
 C          9.4283506198       -0.5746988002        0.7345543008
 C          8.0553996078       -0.3864176836        0.5049941350
 C          7.4255218663       -1.0124943987       -0.5798960931
 C          6.0805321095       -0.8298112363       -0.7947597731
 C          5.3146881010       -0.0011123414        0.0429682837
 C          3.8982978029        0.2042725485       -0.2005747009
 C          3.3750837551        1.5329081596       -0.2963030467
 C          4.2058598085        2.6577535788       -0.2583083222
 C          3.6861123352        3.9483505856       -0.2579941630
 C          2.3189070309        4.1355651746       -0.2867199802
 C          1.4730163265        3.0367994135       -0.3947770371
 C          1.9726754207        1.7317412999       -0.4711973240
 C          1.1141573700        0.6102263781       -0.6871625733
 C         -0.3021427884        0.8167262965       -0.9478640311
 C         -0.7222591162        1.6744139392       -1.9768173323
 C         -2.0596096329        1.8650775390       -2.2577883266
 C         -3.0101423695        1.2085364226       -1.4863325470
 C         -2.6026515437        0.3629626216       -0.4394956981
 C         -1.2720198429        0.1523934538       -0.1784322054
 C         -3.8063266611       -0.2451399997        0.2563209398
 C         -3.6918145313       -1.7524632232        0.1326722046
 C         -4.2371052149       -2.4231226374       -0.9546530303
 C         -4.0726605210       -3.7909267666       -1.0915488464
 C         -3.3534742998       -4.5052406949       -0.1488141226
 C         -2.7949255781       -3.8414316543        0.9307399870
 C         -2.9590820934       -2.4748988823        1.0683403005
 C         -3.9713858084        0.2129674092        1.6936760850
 C         -4.7943847839       -0.4990742014        2.5595883889
 C         -5.0047988295       -0.0581011180        3.8535382838
 C         -4.3990918215        1.1042984081        4.3006609991
 C         -3.5860037602        1.8234961140        3.4421186524
 C         -3.3769949036        1.3838186418        2.1461663178
 C         -4.9474232243        0.3521629493       -0.5467026997
 C         -6.3038079068        0.1692080212       -0.3852645589
 C         -7.1743301030        0.8438317053       -1.2321059865
 C         -6.6927217540        1.6921031123       -2.2191291109
 C         -5.3315816535        1.8852617757       -2.3846414143
 C         -4.4572514950        1.2115586698       -1.5438373830
 C          1.6470663145       -0.7155948753       -0.6538187762
 C          0.8611926129       -1.8340337066       -0.9541415170
 C          1.3580608795       -3.1272939700       -0.8312274936
 C          2.6523229142       -3.3267865061       -0.3948848685
 C          3.4770273290       -2.2315525894       -0.1583391536
 C          3.0253067653       -0.9206247446       -0.3442470134
 C          5.9621137562        0.6256779358        1.1215731608
 C          7.3016847336        0.4316223825        1.3584971638
 H          8.0086497186       -1.6332361996       -1.2450728193
 H          5.6075490883       -1.2939797363       -1.6477229906
 H          5.2768510750        2.5279760207       -0.2363613197
 H          4.3569383335        4.7936472848       -0.2209976178
 H          1.9000019811        5.1299531384       -0.2428338092
 H          0.4062786753        3.1974391477       -0.4166387745
 H          0.0274425534        2.1564999387       -2.5876583187
 H         -2.3597599844        2.5090923672       -3.0710303109
 H         -0.9603201846       -0.4835650861        0.6366167020
 H         -4.7966117943       -1.8745605595       -1.6986682468
 H         -4.5084691876       -4.2989639985       -1.9399547466
 H         -3.2266359735       -5.5728526515       -0.2555734913
 H         -2.2258587047       -4.3887768624        1.6685406281
 H         -2.5228463971       -1.9668903729        1.9163942581
 H         -5.2653099895       -1.4112730242        2.2222983673
 H         -5.6448536607       -0.6244380332        4.5149649580
 H         -4.5622101446        1.4483123731        5.3116727144
 H         -3.1120176609        2.7337916189        3.7804697630
 H         -2.7448447781        1.9571994218        1.4838743516
 H         -6.6880868927       -0.4880305593        0.3804106745
 H         -8.2399281636        0.7066069536       -1.1191893839
 H         -7.3892046476        2.2072390220       -2.8649942430
 H         -4.9588467123        2.5461234903       -3.1531161269
 H         -0.1531178389       -1.6956918665       -1.2951362400
 H          0.7198907405       -3.9668355208       -1.0631350569
 H          3.0368909868       -4.3253691257       -0.2500148680
 H          4.4872551900       -2.4032872876        0.1799188286
 H          5.3825866823        1.2367791338        1.7979466021
 H          7.7842175202        0.9019468183        2.2033809694
