65

C     -6.123101    1.664309    0.000026
C     -5.557953    0.219977   -0.000004
C     -6.726505   -0.799787   -0.000029
C     -4.747297    0.021502   -1.288357
C     -5.380126    0.176687   -2.547436
C     -4.689402    0.008846   -3.744849
C     -3.346083   -0.318903   -3.713899
C     -2.703539   -0.476708   -2.485299
C     -3.381058   -0.312347   -1.252858
N     -2.692441   -0.481686   -0.000014
C     -1.300678   -0.823301   -0.000015
C     -0.900005   -2.161435    0.000001
C      0.458941   -2.475335    0.000012
C      1.426942   -1.478302    0.000007
N      2.727528   -1.809564    0.000011
C      3.660405   -0.825424    0.000011
C      5.026390   -1.153750   -0.000002
C      5.426536   -2.512903   -0.000037
C      6.768564   -2.894169   -0.000061
C      7.130567   -4.280958   -0.000126
N      7.432469   -5.401488   -0.000197
C      7.747338   -1.911954   -0.000037
C      7.377486   -0.563645   -0.000001
C      6.020530   -0.142456    0.000010
C      5.616982    1.230386    0.000029
C      6.530150    2.318814    0.000033
C      6.111444    3.652737    0.000057
C      4.756801    3.949222    0.000078
C      4.311702    5.311653    0.000112
N      3.962730    6.418431    0.000141
C      3.834543    2.902441    0.000067
C      4.233756    1.542899    0.000038
C      3.263013    0.527387    0.000020
N      1.946361    0.850003    0.000009
C      1.030453   -0.132059   -0.000001
C     -0.322541    0.180473   -0.000016
C     -3.381067   -0.312418    1.252834
C     -2.703557   -0.476854    2.485270
C     -3.346106   -0.319112    3.713875
C     -4.689420    0.008653    3.744836
C     -5.380135    0.176568    2.547427
C     -4.747303    0.021440    1.288343
H     -5.312137    2.403591    0.000029
H     -6.749924    1.867620    0.875106
H     -6.749938    1.867648   -0.875040
H     -6.348892   -1.830132   -0.000054
H     -7.376348   -0.690493    0.875053
H     -7.376346   -0.690450   -0.875108
H     -6.435280    0.435046   -2.608309
H     -5.201905    0.135329   -4.694548
H     -2.792107   -0.452430   -4.638982
H     -1.648185   -0.733346   -2.514561
H     -1.644884   -2.953672    0.000010
H      0.769882   -3.517141    0.000032
H      4.664674   -3.295416   -0.000055
H      8.802796   -2.178850   -0.000053
H      8.190384    0.158312    0.000015
H      7.604423    2.151736    0.000017
H      6.854508    4.448411    0.000058
H      2.770281    3.148160    0.000082
H     -0.626762    1.224377   -0.000028
H     -1.648206   -0.733505    2.514523
H     -2.792139   -0.452700    4.638955
H     -5.201927    0.135095    4.694540
H     -6.435286    0.434936    2.608310
