73

C     -9.792563   -1.073233   -0.209200
C     -8.966994   -1.577435   -1.212589
C     -7.590531   -1.348371   -1.165433
C     -7.023090   -0.611576   -0.113090
C     -5.561356   -0.367931   -0.062318
C     -4.713901   -1.298951    0.613830
C     -5.217819   -2.465601    1.249219
C     -4.395377   -3.376633    1.910399
C     -3.034022   -3.149742    1.958216
C     -2.507984   -2.014038    1.344154
C     -3.318332   -1.066397    0.662556
C     -2.774817    0.096535    0.034513
C     -1.313363    0.339861    0.084747
C     -0.745018    1.069564    1.140478
C      0.632378    1.301870    1.189403
C      1.462780    0.803528    0.178963
N      2.870514    1.033598    0.229421
C      3.488080    2.248567    0.559638
C      2.928495    3.519590    0.822711
C      3.769901    4.589378    1.127060
C      5.142790    4.415937    1.153535
C      5.703882    3.170382    0.853818
C      4.883146    2.061421    0.531369
C      5.077084    0.692538    0.143950
C      6.254953   -0.010659   -0.039474
S      7.767841    0.659478    0.121354
C      8.554966   -0.821572   -0.260378
C      9.942596   -1.054225   -0.327976
C     10.398954   -2.332852   -0.654394
C      9.500075   -3.358818   -0.908226
C      8.123403   -3.123370   -0.840201
C      7.625478   -1.836379   -0.512008
C      6.267948   -1.351501   -0.381597
C      5.010658   -1.989305   -0.526511
C      3.797867   -1.289521   -0.346543
C      3.845542    0.079538   -0.033961
C      0.908096    0.071481   -0.877173
C     -0.470373   -0.155208   -0.922463
C     -3.622080    1.027765   -0.641659
C     -3.118409    2.194658   -1.277204
C     -3.941276    3.105581   -1.938035
C     -5.302618    2.878472   -1.985141
C     -5.828204    1.742589   -1.371078
C     -5.017632    0.795026   -0.690039
C     -7.868267   -0.110236    0.890215
C     -9.244561   -0.340045    0.841844
H    -10.864141   -1.251836   -0.246389
H     -9.393569   -2.149237   -2.032562
H     -6.955118   -1.746532   -1.954056
H     -6.284582   -2.684351    1.236752
H     -4.824672   -4.255650    2.382934
H     -2.376946   -3.847784    2.469320
H     -1.429894   -1.875731    1.407617
H     -1.379484    1.453543    1.937539
H      1.039572    1.835360    2.045215
H      1.856540    3.687706    0.777391
H      3.343069    5.566961    1.337773
H      5.792579    5.254153    1.392438
H      6.785353    3.089844    0.868713
H     10.648145   -0.252509   -0.129132
H     11.468288   -2.523300   -0.709173
H      9.865341   -4.351160   -1.161432
H      7.431743   -3.937251   -1.041963
H      4.972147   -3.047937   -0.774313
H      2.857523   -1.825423   -0.434110
H      1.521896   -0.293464   -1.697203
H     -0.892051   -0.715522   -1.755239
H     -2.052051    2.414242   -1.265573
H     -3.512870    3.984897   -2.410831
H     -5.960565    3.576428   -2.495249
H     -6.906564    1.603795   -1.433192
H     -7.450867    0.463498    1.715341
H     -9.887662    0.053501    1.624684
