  94
 
 C          6.4636873418       -0.0232333145       -0.4206483171
 C          5.7293590437       -1.3036501320        0.0195905140
 C          6.7443071531       -2.3820607887        0.4440660784
 C          4.9229450199       -1.8224202357       -1.1560761465
 C          5.5788797796       -2.1601177247       -2.3327675095
 C          4.9010298113       -2.6014225524       -3.4539956625
 C          3.5217438407       -2.6945231743       -3.4137289774
 C          2.8459474580       -2.3687737961       -2.2562034986
 C          3.5302376756       -1.9488384805       -1.1119306056
 N          2.8256136288       -1.6524533362        0.0483652905
 C          1.4121567467       -1.6640696989        0.0264622316
 C          0.6995812462       -2.8404588467        0.0231447500
 C         -0.6999074982       -2.8403063085       -0.0185459554
 C         -1.4122963035       -1.6637906335       -0.0239687911
 N         -2.8257744978       -1.6524382074       -0.0445781305
 C         -3.5290615479       -1.9477346257        1.1168010758
 C         -2.8431712470       -2.3631351905        2.2617815389
 C         -3.5175789909       -2.6880055540        3.4203631177
 C         -4.8970831850       -2.5984559122        3.4610373571
 C         -5.5765830816       -2.1614808533        2.3391138241
 C         -4.9220605800       -1.8246820868        1.1613779787
 C         -5.7303451189       -1.3108497951       -0.0151600281
 C         -6.7417012637       -2.3935621964       -0.4372652304
 C         -6.4689256544       -0.0320097169        0.4225326309
 C         -4.8491332898       -0.9864654978       -1.2060953322
 C         -5.4284332736       -0.5089178133       -2.3744207640
 C         -4.6828571584       -0.2296311845       -3.5050342759
 C         -3.3177189025       -0.4527276976       -3.4851884254
 C         -2.7182107863       -0.9275543507       -2.3373894997
 C         -3.4636627721       -1.1742266993       -1.1805134896
 C         -0.7095492809       -0.4327898343        0.0063965579
 N         -1.3808454168        0.7278104291        0.1069868615
 C         -0.7089202142        1.8541057268        0.1049958421
 C         -1.4761902489        3.0780268264        0.3577659066
 C         -2.7424550531        3.2181735719       -0.2066472323
 C         -3.4872893382        4.3584131086        0.0290089943
 C         -2.9834854907        5.3616460403        0.8416054645
 C         -1.7344881451        5.2172882133        1.4249377470
 C         -0.9808468096        4.0833863351        1.1861466862
 C          0.7097753789        1.8536149679       -0.1108863333
 C          1.4775262515        3.0766301515       -0.3666580206
 C          0.9829610580        4.0797126128       -1.1982521960
 C          1.7371011636        5.2126679231       -1.4399522822
 C          2.9858063854        5.3583491838       -0.8563199157
 C          3.4888026209        4.3573818399       -0.0404374308
 C          2.7434743694        3.2180641516        0.1981272979
 N          1.3813228146        0.7271101978       -0.1101589419
 C          0.7096331345       -0.4330209129       -0.0069052179
 C          3.4618923339       -1.1707340487        1.1837388958
 C          2.7152668058       -0.9238475549        2.3398193561
 C          3.3130455704       -0.4456152187        3.4871001935
 C          4.6776557080       -0.2193343714        3.5072647741
 C          5.4244632350       -0.4987650415        2.3774998574
 C          4.8468871218       -0.9796721542        1.2096961973
 H          5.7420187844        0.7203094522       -0.7544307841
 H          7.1460538992       -0.2307208513       -1.2400486807
 H          7.0366119109        0.3965636367        0.4013229352
 H          7.3972650546       -2.6460408002       -0.3829303848
 H          6.2187559735       -3.2792622542        0.7669022989
 H          7.3611596872       -2.0311295686        1.2664611488
 H          6.6534684644       -2.0737187332       -2.3831594022
 H          5.4434491806       -2.8583938436       -4.3512550210
 H          2.9664814836       -3.0180986632       -4.2819896638
 H          1.7687052197       -2.4343868551       -2.2410773554
 H          1.2306029771       -3.7807766304        0.0384626332
 H         -1.2311669252       -3.7805257749       -0.0317244211
 H         -1.7657694959       -2.4259572033        2.2463404907
 H         -2.9610636025       -3.0081463227        4.2890911101
 H         -5.4384341337       -2.8549232531        4.3590851851
 H         -6.6513861237       -2.0779483700        2.3897377643
 H         -7.3943484153       -2.6572279280        0.3900823378
 H         -7.3590928390       -2.0468280518       -1.2610318954
 H         -6.2131652697       -3.2900308631       -0.7572677243
 H         -7.0443675577        0.3834671891       -0.3998699492
 H         -5.7496584491        0.7151012493        0.7535244935
 H         -7.1496240709       -0.2398347242        1.2432282353
 H         -6.4953309520       -0.3494391487       -2.4101262646
 H         -5.1645426324        0.1454996415       -4.3953586255
 H         -2.7163972060       -0.2636862049       -4.3627527825
 H         -1.6541523493       -1.1147905314       -2.3377696289
 H         -3.1206792240        2.4279772752       -0.8377457612
 H         -4.4634705607        4.4634970928       -0.4208544942
 H         -3.5652627466        6.2526518517        1.0251284627
 H         -1.3452926742        5.9907028515        2.0704040539
 H         -0.0144546817        3.9661637210        1.6549929261
 H          0.0167913418        3.9613880970       -1.6672916325
 H          1.3485505446        5.9842599634       -2.0879826776
 H          3.5680025945        6.2485971737       -1.0421793036
 H          4.4647385331        4.4634982092        0.4097189647
 H          3.1210794708        2.4296317111        0.8317991015
 H          1.6516499618       -1.1135715664        2.3399484794
 H          2.7108234874       -0.2564341741        4.3640174292
 H          5.1579786222        0.1585480643        4.3971604924
 H          6.4909461706       -0.3365906024        2.4134391004
