  61
 
 C          1.5364136058        0.7807123066        2.8850486039
 C          0.4160424901        0.2611479995        2.2627606911
 C          0.5293115726       -0.3681150519        1.0248846261
 C         -0.6519042089       -0.9288167979        0.3565435799
 C         -0.5989684912       -2.1599737467       -0.3004219446
 N         -1.6329289352       -2.7057276985       -0.9109857156
 C         -2.7826881214       -2.0614479752       -0.9173944448
 C         -2.9642543838       -0.8270129319       -0.2893224428
 N         -4.1978561579       -0.1749760287       -0.3209457071
 C         -5.4247532001       -0.7482767992       -0.0387460594
 C         -5.7229607975       -2.0341161737        0.3875941145
 C         -7.0481961245       -2.3406602438        0.6320468643
 C         -8.0566586578       -1.3939195344        0.4679822525
 C         -7.7624275460       -0.1056734241        0.0685964499
 C         -6.4378108458        0.2262193191       -0.1831401419
 C         -5.7842022162        1.4417717317       -0.5817494569
 C         -6.2448571018        2.7145505478       -0.8910993743
 C         -5.3294267782        3.6747193087       -1.2731655993
 C         -3.9727928469        3.3735525628       -1.3647654539
 C         -3.4905727539        2.1141901921       -1.0619894304
 C         -4.4025706534        1.1527559557       -0.6517725476
 C         -1.8724739053       -0.2615380286        0.3628548381
 C          1.7784600275       -0.4577685524        0.4211382569
 C          2.9041889754        0.0642431359        1.0476746022
 N          4.1560714328       -0.0360278531        0.4294435363
 C          4.7034394113       -1.1885036956       -0.1011728950
 C          4.2058353292       -2.4835416370       -0.1045541617
 C          4.9786943802       -3.4704114697       -0.6859102115
 C          6.2226491432       -3.1855241465       -1.2444414584
 C          6.7345709365       -1.9037294670       -1.2207206457
 C          5.9758650876       -0.8948169824       -0.6420964894
 C          6.1967884453        0.5082222257       -0.4284671395
 C          7.2367356429        1.3706463867       -0.7492224820
 C          7.1184816876        2.7039836347       -0.4116619174
 C          5.9749439515        3.1831419238        0.2232904555
 C          4.9271388212        2.3446361240        0.5525990882
 C          5.0511212079        0.9989796611        0.2386116692
 C          2.7801674990        0.6832569578        2.2889906955
 H          1.4420860325        1.2572472454        3.8495030590
 H         -0.5468521475        0.3224733723        2.7472134409
 H          0.3133877626       -2.7403544288       -0.3215054694
 H         -3.5920263086       -2.5351332193       -1.4560212357
 H         -4.9484166789       -2.7715969709        0.5346398174
 H         -7.3065012981       -3.3363163345        0.9608650189
 H         -9.0804693421       -1.6739153819        0.6661405921
 H         -8.5412532814        0.6334342559       -0.0429155379
 H         -7.2988112601        2.9415835436       -0.8378191647
 H         -5.6661330214        4.6714947494       -1.5158977286
 H         -3.2813286639        4.1394136716       -1.6836894802
 H         -2.4389471735        1.8891866918       -1.1587357361
 H         -1.9751444963        0.6905060762        0.8630287218
 H          1.8748605825       -0.9051731261       -0.5568060583
 H          3.2525868102       -2.7190803286        0.3444824877
 H          4.6113392599       -4.4858651178       -0.7042578382
 H          6.7950269478       -3.9841241837       -1.6923049007
 H          7.7060535932       -1.6856185876       -1.6379477460
 H          8.1154428608        1.0018664524       -1.2564596062
 H          7.9167373918        3.3911035327       -0.6497304485
 H          5.9036465223        4.2344873495        0.4603648981
 H          4.0374488949        2.7300537355        1.0276278570
 H          3.6586510913        1.0681752671        2.7839084528
