  85
 
 C          9.8939460436       -1.3497612421       -0.7081373012
 C          8.9436161602       -0.8376764874       -1.7903055890
 N          7.8067737516       -0.1578661317       -1.2261354577
 C          7.7139115451        1.1796045800       -0.9290062773
 C          8.6348300548        2.1956692451       -1.1577942214
 C          8.3144597963        3.4739221389       -0.7521889493
 C          7.1021045362        3.7522403352       -0.1170258748
 C          6.1741403356        2.7617931332        0.1157112079
 C          6.4611725775        1.4602288312       -0.2971021491
 C          5.8032419118        0.2060049752       -0.2365942728
 C          6.6564693666       -0.7516459683       -0.7774606208
 C          6.0344040263       -2.0232367216       -0.6535789064
 C          6.3709499787       -3.3271100002       -1.0093159863
 C          5.4715832650       -4.3398198188       -0.7513137352
 C          4.2361054984       -4.0709794731       -0.1639122278
 C          3.8778203579       -2.7885447511        0.2048305603
 C          4.7868980374       -1.7628329867       -0.0124398517
 N          4.6571097891       -0.4064604351        0.2434195270
 C          3.5678064822        0.2387332856        0.8167683201
 C          3.0925971408        1.4238650353        0.2482452278
 C          2.0264692364        2.0878321913        0.8213727957
 C          1.4312728061        1.5697338382        1.9573741410
 S          0.0306824605        2.4134927218        2.6883524247
 O          0.0654964110        2.2156036390        4.1230839984
 O          0.0189725089        3.7825362334        2.2144793934
 C         -1.4057792524        1.5688919313        2.0309025768
 C         -2.0586540070        0.6235028667        2.8002198773
 C         -3.1653296168       -0.0276270013        2.2904999015
 C         -3.6115925275        0.2624893934        0.9986809881
 N         -4.7358689101       -0.3639708632        0.4742478187
 C         -5.0416798552       -1.7153051421        0.5208921961
 C         -4.3089305698       -2.7640756954        1.0584308853
 C         -4.8220998447       -4.0427720079        0.9559092167
 C         -6.0380795140       -4.2888889639        0.3198542696
 C         -6.7603483424       -3.2636944105       -0.2531607903
 C         -6.2650317244       -1.9646717173       -0.1694051114
 C         -6.6869332123       -0.6924011486       -0.6410002862
 C         -5.7450646891        0.2534735804       -0.2464679613
 C         -6.2114362909        1.5291246674       -0.6525854121
 C         -5.7710555441        2.8459898806       -0.5156080711
 C         -6.5304259474        3.8599762866       -1.0555937205
 C         -7.7236685962        3.5907702150       -1.7296394997
 C         -8.1939013335        2.3020818343       -1.8686002845
 C         -7.4447629551        1.2633672907       -1.3276195708
 N         -7.7066071460       -0.0847265554       -1.3251731373
 C         -8.8897692141       -0.7328644324       -1.8279684191
 C         -9.9712322665       -0.8527634861       -0.7543650764
 C         -2.9328207240        1.2130814069        0.2301922413
 C         -1.8328008959        1.8659737665        0.7486656106
 C          1.8844365591        0.3944655838        2.5290955613
 C          2.9557603747       -0.2705516452        1.9655653531
 H         10.7350214777       -1.8647741098       -1.1645353284
 H          9.3744695823       -2.0404682445       -0.0478734564
 H         10.2701673223       -0.5207268598       -0.1130709780
 H          9.4676518002       -0.1450258540       -2.4536065769
 H          8.5744716296       -1.6731178334       -2.3911158002
 H          9.5834881663        1.9951356698       -1.6325014646
 H          9.0179579534        4.2767934043       -0.9188499616
 H          6.8933804700        4.7643170977        0.1987304103
 H          5.2464841976        2.9862588527        0.6211297012
 H          7.3174704303       -3.5419192440       -1.4817903777
 H          5.7191954071       -5.3568180751       -1.0182047050
 H          3.5427451423       -4.8820426537        0.0035340126
 H          2.9088270959       -2.5941090344        0.6380595373
 H          3.5611690991        1.8075575677       -0.6445646958
 H          1.6507863640        3.0118703382        0.4108063096
 H         -1.7061462485        0.4359727268        3.8023717517
 H         -3.7056366456       -0.7366466780        2.8976859387
 H         -3.3556290178       -2.5932315504        1.5343811351
 H         -4.2676130969       -4.8695863953        1.3749465078
 H         -6.4107187964       -5.3014036701        0.2666876654
 H         -7.6917543734       -3.4659307979       -0.7599657369
 H         -4.8579678826        3.0677663270        0.0167949651
 H         -6.2019271930        4.8844629419       -0.9548540056
 H         -8.2931791671        4.4116732518       -2.1408184685
 H         -9.1268338553        2.1132612641       -2.3779641331
 H         -9.2659624769       -0.1571913771       -2.6772851515
 H         -8.6054265802       -1.7257638035       -2.1864957760
 H         -9.6024357081       -1.4332620104        0.0881725973
 H        -10.8491685928       -1.3456007707       -1.1633839146
 H        -10.2571803594        0.1332963858       -0.3953248093
 H         -3.2734988130        1.4234257098       -0.7716241862
 H         -1.3047422107        2.6137855374        0.1786880345
 H          1.4111309268        0.0340774951        3.4286693641
 H          3.3422449205       -1.1662334095        2.4258772642
