  56
 
 O          3.4647184946        3.2432537958       -0.9698073621
 S          3.1729309270        1.8481516155       -1.1613210390
 O          3.4254531529        1.2971159900       -2.4705043167
 C          4.0619235792        0.8511146213        0.0130190552
 C          5.3778353947        1.1745128231        0.2791058003
 C          6.1588346006        0.3385058616        1.0556603089
 C          5.6026453114       -0.8399863218        1.5314717219
 C          4.2847613797       -1.1601819016        1.2768733738
 C          3.4683602707       -0.3022766996        0.5239115366
 N          2.1299786226       -0.6040740170        0.3248866299
 C          1.6711087722       -1.9187561915        0.6523646343
 C          1.5017549875       -2.8391920295       -0.3720692763
 C          1.0321469874       -4.1088084866       -0.0839990854
 C          0.7342229019       -4.4592756215        1.2229420344
 C          0.9039106277       -3.5392162476        2.2444079412
 C          1.3687415993       -2.2661159549        1.9638844519
 C          1.1702502432        0.2885618510       -0.1198389402
 C         -0.1820318779       -0.0031235351        0.0665336282
 C         -1.1677748106        0.8783432942       -0.3700922234
 N         -2.5291091604        0.5215369226       -0.1962407118
 C         -3.0309212215       -0.5740871877       -0.8544064054
 C         -2.2766203851       -1.3647059391       -1.7337633103
 C         -2.8292419710       -2.4554922762       -2.3500430101
 C         -4.1884686796       -2.8014721060       -2.1284026585
 C         -4.9671132666       -2.0240754523       -1.3098715306
 C         -4.4273698506       -0.9091560045       -0.6687410654
 O         -5.2369614659       -0.1502451554        0.0927299932
 C         -4.7356071276        0.9274970788        0.7239378340
 C         -5.5872165820        1.7017769662        1.5091798739
 C         -5.1034652545        2.7805178337        2.2059340243
 C         -3.7196790275        3.0998975466        2.1474083413
 C         -2.8647856609        2.3620719035        1.3753390370
 C         -3.3330325260        1.2770046187        0.6167062896
 C         -0.8310767746        2.0930890525       -0.9756119118
 C          0.5006153921        2.3917154515       -1.1499835017
 C          1.4888049540        1.5049264941       -0.7380207305
 H          5.7638698428        2.0877673252       -0.1455982559
 H          7.1860450996        0.5869020327        1.2690807138
 H          6.2034849199       -1.5216716737        2.1149252790
 H          3.8821362197       -2.0844634699        1.6600296528
 H          1.7382204484       -2.5509170005       -1.3853360043
 H          0.8992071565       -4.8248416320       -0.8804521336
 H          0.3681806952       -5.4499207741        1.4457609653
 H          0.6699388807       -3.8110560455        3.2627753516
 H          1.4969217970       -1.5378829605        2.7511896777
 H         -0.4858864837       -0.9173395510        0.5518028629
 H         -1.2485605561       -1.1004795566       -1.9252188876
 H         -2.2335060634       -3.0546041322       -3.0192026980
 H         -4.6058208579       -3.6646894716       -2.6199242077
 H         -6.0096228271       -2.2461806031       -1.1433936279
 H         -6.6278775757        1.4209077368        1.5545972234
 H         -5.7632918070        3.3801085738        2.8106990298
 H         -3.3452668356        3.9305090466        2.7233133457
 H         -1.8141849880        2.6057389436        1.3427930025
 H         -1.6068411045        2.7628818817       -1.3107118868
 H          0.8192452321        3.3080684579       -1.6197511870
