  38
 
 C          3.1580778279        2.6879817557       -0.2700099891
 C          1.8127193901        2.9064712112       -0.1674242013
 C          0.9088312764        1.8040373420       -0.0275781678
 C         -0.4875403952        1.9532196276        0.0189395066
 C         -1.1822120836        3.2167487911        0.1051495405
 C         -2.5442702392        3.2921543722        0.1821591164
 C         -3.3826499590        2.1555551487        0.1661193646
 C         -2.7640401787        0.9070519298        0.0692485562
 C         -1.3643991141        0.8234876009       -0.0063594824
 N         -0.9910954072       -0.4779854529       -0.1279975068
 C         -2.0887642711       -1.2786340882       -0.1177233094
 C         -2.1917637363       -2.6632081630       -0.2139294242
 C         -3.4563654350       -3.2142403672       -0.1883000895
 C         -4.5954589073       -2.4081187732       -0.0711088129
 C         -4.5037979384       -1.0309798053        0.0232253165
 C         -3.2452043458       -0.4453554673        0.0013968376
 N          1.4194112765        0.5190391060        0.0331257040
 C          2.7160106723        0.3484975565       -0.0493740273
 N          3.1717501885       -0.9679740929        0.0604421077
 C          2.4878285901       -2.0409240312        0.5342033182
 C          3.3345811841       -3.1160399474        0.4671137294
 C          4.5258885700       -2.5924963793       -0.0695272876
 N          4.4135604116       -1.3041391994       -0.3017853770
 C          3.6551557706        1.3751247847       -0.2122221990
 H          3.8442181204        3.5129419723       -0.3902546747
 H          1.4193500504        3.9069698181       -0.2286331287
 H         -0.6065605086        4.1267743935        0.1300849313
 H         -3.0077297866        4.2656945345        0.2575064436
 H         -4.4534473821        2.2563110481        0.2148574786
 H          0.0066277926       -0.6839948824       -0.1672609950
 H         -1.3102264293       -3.2797477123       -0.3072703477
 H         -3.5737794146       -4.2845938281       -0.2603378559
 H         -5.5671438079       -2.8788060474       -0.0563993981
 H         -5.3910719162       -0.4229400235        0.1102027817
 H          1.4879808810       -1.9465152149        0.9046458393
 H          3.1387548720       -4.1267959592        0.7600485906
 H          5.4433577299       -3.1027122683       -0.2873387736
 H          4.7035965804        1.1429167595       -0.2641607266
