62

O      1.662064   -2.814136    1.479957
P      2.089008   -1.629377    0.620820
C      3.496349   -0.766114    1.362381
C      4.251732    0.175708    0.647836
C      5.328272    0.827809    1.251727
C      5.662683    0.545962    2.574647
C      4.922542   -0.388093    3.295957
C      3.846243   -1.040463    2.693732
C      2.618607   -2.182198   -1.017813
C      3.198651   -3.454945   -1.143236
C      3.629008   -3.923600   -2.384609
C      3.485214   -3.125696   -3.516967
C      2.911107   -1.860679   -3.408933
C      2.479490   -1.389887   -2.167096
C      0.754220   -0.402082    0.399375
N      1.090050    0.868399    0.157640
C      0.070659    1.707858   -0.013815
C      0.395252    3.119415   -0.294135
C      1.655059    3.659286    0.033333
C      1.968524    4.995968   -0.232418
C      1.027799    5.825054   -0.835398
C     -0.223991    5.319389   -1.172471
C     -0.534824    3.982359   -0.904465
N     -1.215234    1.355472    0.033659
C     -1.471678    0.068635    0.281179
N     -2.848612   -0.370525    0.340561
C     -3.275870   -1.700252    0.489778
C     -2.570298   -2.910522    0.674826
C     -3.281649   -4.111210    0.767178
C     -4.664913   -4.126839    0.678366
C     -5.367128   -2.934343    0.500768
C     -4.671304   -1.707258    0.408119
C     -5.107951   -0.362217    0.252795
C     -6.390732    0.220407    0.137876
C     -6.524579    1.605116    0.030500
C     -5.399262    2.414687    0.043722
C     -4.119639    1.860842    0.152073
C     -3.977142    0.458835    0.243214
N     -0.509984   -0.838142    0.454123
H      4.006060    0.414504   -0.383742
H      5.908034    1.555354    0.689113
H      6.502227    1.052686    3.043718
H      5.183874   -0.611235    4.327408
H      3.276182   -1.772219    3.264902
H      3.308780   -4.087721   -0.263307
H      4.073137   -4.912436   -2.467271
H      3.818504   -3.491388   -4.484910
H      2.798166   -1.240398   -4.294948
H      2.038903   -0.397602   -2.113938
H      2.408541    3.036099    0.513497
H      2.946865    5.386973    0.035526
H      1.269573    6.864479   -1.041931
H     -0.961525    5.962841   -1.645767
H     -1.518327    3.612634   -1.188930
H     -1.487669   -2.944690    0.754078
H     -2.737273   -5.041976    0.911766
H     -5.204466   -5.067233    0.752304
H     -6.451764   -2.952056    0.440265
H     -7.276970   -0.408233    0.142213
H     -7.513680    2.047631   -0.053162
H     -5.510226    3.494334   -0.026939
H     -3.264690    2.527030    0.175266
