  79
 
 C         -6.5579344552        3.8460721315        0.6554457568
 C         -5.7570398915        2.5838823180        0.5490087416
 C         -5.8780593956        1.6078909394        1.5441754848
 C         -5.1685821825        0.4242721423        1.5036897366
 C         -4.3199390040        0.2139358531        0.4255273516
 C         -4.1691242731        1.1956387677       -0.5821424069
 C         -4.8906165504        2.3769154783       -0.5146327720
 C         -3.1899734203        0.6836104168       -1.5043442790
 C         -2.6070787075        1.1865006280       -2.6566615123
 C         -1.6593909978        0.4255586908       -3.3251067486
 C         -0.9717438918        0.9543745422       -4.5470007977
 C         -1.3309384203       -0.8483132557       -2.8470437008
 C         -1.8935729718       -1.3722127493       -1.7018821701
 C         -2.8055428488       -0.5842470405       -1.0102090739
 N         -3.4857890354       -0.8492425701        0.1585941770
 C         -3.2785902381       -1.9602677617        0.9821907540
 C         -4.3511339675       -2.7581705135        1.3463639998
 C         -4.1589268468       -3.9078580265        2.0916906187
 C         -2.8628433505       -4.2816516861        2.4703333682
 C         -1.7895628661       -3.4987776095        2.1456152340
 C         -1.9620630986       -2.2892070789        1.4306586403
 C         -0.8612702805       -1.4338974177        1.2494867132
 N          0.4238119876       -1.7412310389        1.4469495852
 N          1.1504105250       -0.7314264838        1.0802550681
 C          0.3438002828        0.2435556013        0.6539317997
 C          0.6742961217        1.4989462904        0.1216141141
 C         -0.3408867967        2.4613867868       -0.1039044644
 C         -0.0277329307        3.7429091799       -0.4648279203
 C          1.3072220714        4.1320610179       -0.6265558166
 C          2.3172942673        3.1986952286       -0.4618306683
 C          2.0265297705        1.8869677569       -0.1267393380
 N          3.0528730568        0.9427650253       -0.0678398366
 C          3.1045861245       -0.2284315979       -0.7935376396
 C          2.2220885515       -0.7172896275       -1.7470524821
 C          2.5340689053       -1.9147237491       -2.3571590164
 C          3.7007444326       -2.6244519635       -2.0544878194
 C          3.9669851174       -3.9318979331       -2.7365239416
 C          4.5938045201       -2.1130300086       -1.1234314174
 C          4.3027529855       -0.9138944093       -0.4942747803
 C          5.0021579294       -0.1052002332        0.4705256561
 C          6.2021903379       -0.2459031292        1.1462728020
 C          6.5968378649        0.7377082095        2.0439459731
 C          7.8858415903        0.6175727020        2.7979586949
 C          5.7736126134        1.8478778502        2.2630548507
 C          4.5719957929        2.0120613640        1.6045826925
 C          4.1919999839        1.0335776008        0.6944242626
 O         -0.9746459117       -0.1463360367        0.7733840137
 H         -7.6225006300        3.6184373717        0.6979700905
 H         -6.3755460430        4.4970593521       -0.1956401701
 H         -6.2982682407        4.3844025812        1.5665701071
 H         -6.5464577401        1.7934669703        2.3724647803
 H         -5.2629833945       -0.3085018570        2.2905356083
 H         -4.7741496481        3.1294952542       -1.2806924637
 H         -2.8823138019        2.1637999132       -3.0249394904
 H          0.0624282559        1.2107962077       -4.3131943829
 H         -0.9575303503        0.2052547328       -5.3369631954
 H         -1.4681698882        1.8473595145       -4.9180195807
 H         -0.6106431710       -1.4376083550       -3.3958217988
 H         -1.6190809846       -2.3539738994       -1.3453327116
 H         -5.3398963731       -2.4910737374        1.0009720337
 H         -5.0010890236       -4.5297173313        2.3516290391
 H         -2.7160190931       -5.1948693116        3.0274210964
 H         -0.7856686299       -3.7600778065        2.4401023612
 H         -1.3673357396        2.1606564443        0.0386914329
 H         -0.8154682691        4.4646668302       -0.6223933950
 H          1.5479276119        5.1443620703       -0.9106581450
 H          3.3471499745        3.4746861530       -0.6393028721
 H          1.3160843312       -0.1845848669       -1.9948530439
 H          1.8589699432       -2.3240194080       -3.0950121048
 H          3.8171317442       -3.8439271271       -3.8114651815
 H          3.2794155750       -4.6925749050       -2.3663469230
 H          4.9831734487       -4.2696285076       -2.5502274873
 H          5.5059472696       -2.6432264888       -0.8924372476
 H          6.8222064758       -1.1146594663        0.9814909661
 H          7.6883633407        0.4811666153        3.8611947449
 H          8.4809430018        1.5228142473        2.6859531250
 H          8.4675106056       -0.2298082915        2.4446720496
 H          6.0918117536        2.5953684881        2.9753322575
 H          3.9423929858        2.8672047528        1.7976211496
