  72
 
 C          3.3754608261        3.5204856648       -1.0766190087
 C          2.2279507291        2.6414167464       -0.6804165080
 C          2.0242328394        2.2687807631        0.6362867311
 C          0.9655954461        1.4498483093        1.0061309480
 C          0.7697283380        1.1999024448        2.4745245430
 C          0.0671194600        0.9649565804        0.0434474701
 B         -1.0716163986       -0.0578045166        0.3938648624
 C         -0.7271274749       -1.3878635329        1.1667029029
 C         -1.7143606531       -1.9385339413        1.9974698130
 C         -1.4905308964       -3.0508896889        2.7851276357
 C         -0.2546513604       -3.6765385898        2.7564992836
 C          0.7411797717       -3.1723838686        1.9407994019
 C          0.5195770434       -2.0408574747        1.1619364996
 N          1.6076644429       -1.5729128897        0.3922971226
 C          2.8012047909       -1.1353709497        0.9247993743
 C          3.1991026228       -1.0554414310        2.2520709119
 C          4.4642799884       -0.5692458993        2.5199570056
 C          5.3210436920       -0.1685052125        1.4962514131
 C          4.9341867339       -0.2538622998        0.1737048552
 C          3.6683278168       -0.7432633743       -0.1210394457
 C          2.9681414355       -1.0052978176       -1.3453871798
 C          3.3115275385       -0.8953858432       -2.6863503291
 C          2.4135388188       -1.3330524549       -3.6393320374
 C          1.1926249118       -1.8918850223       -3.2678775395
 C          0.8242551117       -2.0003668811       -1.9405710284
 C          1.7071909078       -1.5320103712       -0.9794624529
 C         -2.5844649259        0.2440495785        0.0744259834
 C         -3.1764340795        1.4372378527        0.5364202907
 C         -2.3883059499        2.4283376232        1.3425457026
 C         -4.5131472152        1.7052156981        0.2949057177
 C         -5.3183762769        0.8262279303       -0.4172340796
 C         -6.7569969889        1.1514653820       -0.6838096543
 C         -4.7424444036       -0.3457429930       -0.8740594448
 C         -3.4074913100       -0.6474557761       -0.6340502923
 C         -2.8847665785       -1.9299314824       -1.2146343901
 C          0.2396496707        1.3983639697       -1.2847761462
 C         -0.7361050289        1.0015212552       -2.3540461029
 C          1.3082554353        2.2082228526       -1.6264583667
 H          3.8436604643        3.1509653700       -1.9873244229
 H          4.1224168891        3.5624322533       -0.2873374824
 H          3.0231101416        4.5346245231       -1.2705280288
 H          2.7050076697        2.6194039168        1.4005292137
 H          1.7270477417        1.0224826516        2.9600501968
 H          0.3272504508        2.0852313727        2.9341311860
 H          0.1113124707        0.3565315900        2.6583842166
 H         -2.6830044569       -1.4603932033        2.0236134524
 H         -2.2788000197       -3.4332513463        3.4169113468
 H         -0.0678407609       -4.5528855224        3.3596424985
 H          1.7088609978       -3.6525251160        1.8994241958
 H          2.5434686846       -1.3690694968        3.0508356762
 H          4.7983967285       -0.4992207471        3.5455713462
 H          6.3025525514        0.2081539930        1.7461878310
 H          5.6013914359        0.0509500522       -0.6190827021
 H          4.2696061398       -0.4878900908       -2.9740508818
 H          2.6642236041       -1.2603620649       -4.6878294120
 H          0.5230485162       -2.2532678755       -4.0354478110
 H         -0.1118741174       -2.4548178812       -1.6579042038
 H         -2.0380403883        1.9715295732        2.2659648966
 H         -3.0017563166        3.2905929815        1.5954606634
 H         -1.5178132995        2.7698776896        0.7873238673
 H         -4.9442914125        2.6239281792        0.6701365633
 H         -7.2859859519        0.2862919271       -1.0767229644
 H         -6.8296051241        1.9592680263       -1.4130373498
 H         -7.2512874564        1.4825014055        0.2284536519
 H         -5.3456435167       -1.0503299120       -1.4312983248
 H         -3.6719863470       -2.6812487930       -1.2463311303
 H         -2.5454711891       -1.7626460921       -2.2381074875
 H         -2.0545732693       -2.3181015827       -0.6338019034
 H         -1.7094459061        1.4496084733       -2.1581313901
 H         -0.3909528840        1.3356187162       -3.3300984751
 H         -0.8607740452       -0.0766763843       -2.3820014086
 H          1.4327751445        2.5112600741       -2.6576308861
