  45
 
 C         -0.1501808746       -1.1325156151        3.5483705516
 C         -0.8852460114       -0.3559437098        2.5159176759
 S         -1.7734044372        1.0448216218        3.0333604803
 C         -2.2510478424        1.4125392527        1.4007761991
 C         -3.0529382369        2.4648103910        0.9855750097
 C         -3.3431379483        2.5742511015       -0.3588545319
 C         -2.8641533658        1.6317940200       -1.2674177441
 C         -2.0717141032        0.5842528603       -0.8513767158
 C         -1.7290862266        0.4745262626        0.4960469120
 C         -0.9340016501       -0.5301486647        1.1606041843
 C         -0.2561777495       -1.5672485233        0.3966646733
 C          0.5093993014       -1.3757796131       -0.7078671088
 C          1.0074774542       -0.1114766077       -1.2130943960
 C          0.9920521030        0.2782910844       -2.5281331410
 C          0.5275100376       -0.4664527840       -3.7274205364
 S          1.5453195363        1.9059621740       -2.7417760226
 C          1.8665874687        2.0794435880       -1.0397294344
 C          2.4047093645        3.1894419331       -0.4067204601
 C          2.6447788743        3.1147980814        0.9498662214
 C          2.3847589022        1.9387334541        1.6510006429
 C          1.8483532614        0.8379382875        1.0189526976
 C          1.5438490220        0.9052660692       -0.3405322194
 C          0.8471160437       -2.6988756158       -1.3502069573
 F          2.0891699724       -2.7661297928       -1.8795283139
 F          0.0021805211       -3.0395129899       -2.3673630074
 C          0.6359097603       -3.7081811510       -0.1948218819
 F          0.3667194127       -4.9624081417       -0.6024668548
 F          1.7531326677       -3.7789074855        0.5681641402
 C         -0.5011234508       -3.0406308609        0.6163653788
 F         -1.7089860588       -3.4265511861        0.1030617798
 F         -0.5211953428       -3.4652302071        1.8979452432
 H          0.2031744556       -0.4671511991        4.3331468176
 H          0.6963504101       -1.6638212082        3.1196467767
 H         -0.8103245425       -1.8707062711        4.0055807456
 H         -3.4398654932        3.1713395728        1.7029255270
 H         -3.9600166651        3.3878828205       -0.7081808151
 H         -3.1235926842        1.7208467080       -2.3114739688
 H         -1.7290995852       -0.1587464688       -1.5537726080
 H          1.2141500195       -1.2816204792       -3.9594397877
 H          0.4842932452        0.1984464303       -4.5861006611
 H         -0.4587654945       -0.9005467446       -3.5682694607
 H          2.6365158050        4.0794587998       -0.9702714860
 H          3.0594355078        3.9659060764        1.4676467449
 H          2.6153755490        1.8874550170        2.7042121564
 H          1.6857400673       -0.0796212873        1.5589875549
