  103
 
 C         11.3414687000       -1.1518269005        1.5638467678
 C         10.3683234875       -1.7959352414        0.8166515884
 C          9.2993347612       -1.0887612510        0.3005213486
 C          9.1839425976        0.2813745956        0.5352972304
 N          8.1005276612        1.0044140949        0.0174052067
 C          8.3053827481        2.3000757570       -0.4755153444
 C          7.3533702468        3.2978902132       -0.2658417919
 C          7.5605574933        4.5724655236       -0.7575207809
 C          8.7194509456        4.8771534346       -1.4534088071
 C          9.6709203259        3.8911345652       -1.6597857570
 C          9.4679916589        2.6110442759       -1.1808449128
 C          6.8254029858        0.4360397703       -0.0073230477
 C          6.4057894088       -0.4183651880        1.0142854557
 C          5.1499843272       -0.9859831505        0.9815066939
 C          4.2600720053       -0.7084376509       -0.0559926342
 C          2.9217300017       -1.3099995214       -0.0813547102
 C          1.8093791257       -0.5664690633       -0.4733776243
 C          0.5476388093       -1.1252865038       -0.4869862288
 C          0.3602516728       -2.4539626898       -0.1093885317
 C         -0.9418233393       -3.1006851709       -0.1160241119
 N         -1.1182090633       -4.3520182600       -0.4658987867
 C         -2.4531321783       -4.5859540671       -0.3540215540
 C         -3.1525027727       -5.7903483664       -0.6457311863
 C         -2.4813428178       -6.9228674236       -1.1206143581
 C         -3.1760625038       -8.0693967506       -1.4153911335
 C         -4.5584843687       -8.0954051067       -1.2390685970
 C         -5.2280829647       -6.9893969976       -0.7696927189
 C         -4.5530790926       -5.8000921676       -0.4519678983
 C         -5.2279305104       -4.6243429765        0.0713800831
 C         -6.6076514771       -4.6214363351        0.3246166639
 C         -7.2519351673       -3.5280813146        0.8537147701
 C         -6.5317528706       -2.3807719207        1.1717137637
 C         -5.1799061792       -2.3409692427        0.9345920568
 C         -4.5072298868       -3.4341040802        0.3686626444
 C         -3.1098293425       -3.4407888098        0.0935313848
 N         -2.1242936244       -2.4872829838        0.2309397751
 C         -2.2370171331       -1.1574078720        0.6914819581
 C         -1.6144842515       -0.7900549848        1.8780905243
 C         -1.7085929345        0.5192334077        2.3175760125
 C         -2.4296996485        1.4503373326        1.5928164999
 C         -3.0617826052        1.0880378336        0.4040595548
 C         -3.8192848066        2.0780695795       -0.3833870805
 C         -3.4323558477        2.3301492563       -1.6958638228
 C         -4.0695943106        3.2844493567       -2.4617589776
 C         -5.1329845925        4.0224332146       -1.9392633813
 C         -5.7998179519        5.0299041635       -2.6966184137
 C         -6.8321373930        5.7322834173       -2.1755486274
 C         -7.2977768986        5.4857931849       -0.8499534697
 C         -8.3633008856        6.1959942365       -0.2935822215
 C         -8.7972427350        5.9283492714        0.9922676689
 C         -8.1834668640        4.9489986960        1.7517640057
 C         -7.1109587380        4.2177331176        1.2380169999
 C         -6.4595539070        3.1940890519        1.9860801700
 C         -5.4112562920        2.5065945379        1.4766099876
 C         -4.9091084646        2.7749491676        0.1674502058
 C         -5.5653129713        3.7591394022       -0.6154428021
 C         -6.6559187448        4.4861110726       -0.0765185701
 C         -2.9440986245       -0.2196125053       -0.0520142214
 C          1.4747399910       -3.2102277152        0.2568086039
 C          2.7317033738       -2.6450519088        0.2777783982
 C          4.6800841756        0.1541654762       -1.0683000362
 C          5.9419379976        0.7092017610       -1.0535720159
 C         10.1642637316        0.9240020195        1.2913157951
 C         11.2345210231        0.2101652578        1.7954260107
 H         12.1769601256       -1.7073417308        1.9627603683
 H         10.4464110257       -2.8564788051        0.6257003270
 H          8.5474128828       -1.5916108696       -0.2902260333
 H          6.4540763195        3.0664855228        0.2863163216
 H          6.8152978370        5.3359448068       -0.5869711903
 H          8.8795070057        5.8752516537       -1.8328896561
 H         10.5753510083        4.1176386058       -2.2057145387
 H         10.2072671093        1.8418825200       -1.3514424228
 H          7.0728030027       -0.6295472509        1.8373557408
 H          4.8398742072       -1.6306731999        1.7908035600
 H          1.9329422070        0.4685950956       -0.7563274642
 H         -0.2920966440       -0.5285747828       -0.8094428705
 H         -1.4113714986       -6.8584630149       -1.2488666702
 H         -2.6607934649       -8.9444199180       -1.7836067796
 H         -5.1110847984       -8.9940626013       -1.4734018303
 H         -6.2978347223       -7.0565543748       -0.6511857018
 H         -7.1933131661       -5.5000852153        0.1078803828
 H         -8.3167469483       -3.5643568725        1.0318541896
 H         -7.0304792559       -1.5261704114        1.6049081627
 H         -4.6233848558       -1.4564014847        1.1973969768
 H         -1.0622807696       -1.5273753348        2.4414709479
 H         -1.2194825479        0.8105801804        3.2347784465
 H         -2.4985515825        2.4713418750        1.9375691550
 H         -2.5995164731        1.7795594578       -2.1103788299
 H         -3.7420493962        3.4718018867       -3.4744079582
 H         -5.4553876241        5.2186658578       -3.7038355409
 H         -7.3300268153        6.4961652344       -2.7561943160
 H         -8.8495997315        6.9617883140       -0.8812109604
 H         -9.6240549974        6.4879859083        1.4059696643
 H         -8.5304267720        4.7422228909        2.7543099651
 H         -6.8287181684        2.9753943769        2.9784372772
 H         -4.9411909259        1.7270503243        2.0576837869
 H         -3.4233310863       -0.5185222520       -0.9738131585
 H          1.3301663942       -4.2460997790        0.5239663372
 H          3.5834345204       -3.2481840313        0.5560346759
 H          4.0196230924        0.3647518015       -1.8966296737
 H          6.2563803212        1.3569972981       -1.8589012754
 H         10.0785467395        1.9841835567        1.4808368083
 H         11.9858949507        0.7201838376        2.3807801035
