  70
 
 C          9.8629975256       -0.3089529999       -0.4404156345
 C          9.2443496665       -0.9868920494       -1.5018848817
 C          7.8813070439       -1.0340322527       -1.5915882193
 C          7.0727636199       -0.4030873493       -0.6212229084
 C          5.6686693280       -0.4386622863       -0.6850252919
 C          4.8856389353        0.1896304400        0.2631155516
 C          3.4282472955        0.1505334786        0.1948930795
 C          2.6877952362        1.3744623663        0.1904169670
 C          3.3256677506        2.6164231933        0.1480738902
 C          2.6062432893        3.8066838983        0.2326220505
 C          1.2361458297        3.7699668021        0.3689001389
 C          0.5706129218        2.5459212203        0.3512793083
 C          1.2622638208        1.3413686634        0.2046925099
 C          0.5816789147        0.0871567324        0.1008289631
 C         -0.8751892779        0.0529913748        0.0603811910
 C         -1.5882870989        0.7926463143       -0.8900744895
 C         -2.9645529183        0.7530201629       -0.9373683187
 C         -3.6783450298       -0.0123506202       -0.0160188725
 N         -5.0761136164       -0.0446978580       -0.0538734550
 C         -5.8593609288       -1.1820945977       -0.0274293621
 C         -5.4805683756       -2.5169904059       -0.0129946768
 C         -6.4796894443       -3.4715145947       -0.0170315314
 C         -7.8261360957       -3.1155782244       -0.0446244295
 C         -8.2089316857       -1.7895703960       -0.0861752978
 C         -7.2229704063       -0.8122737677       -0.0826338278
 C         -7.2547009171        0.6226117382       -0.1400702173
 C         -8.2836722214        1.5531784269       -0.1901394945
 C         -7.9610429785        2.8955397340       -0.2132652692
 C         -6.6329553618        3.3134892556       -0.1700671122
 C         -5.5918864941        2.4062813496       -0.1197110047
 C         -5.9086663392        1.0552537060       -0.1233465675
 C         -2.9808906360       -0.7453123962        0.9434421099
 C         -1.6037654822       -0.7208507158        0.9710635233
 C          1.3244162317       -1.1345152197        0.0352002671
 C          0.6960636753       -2.3663723139       -0.1599202200
 C          1.4132416946       -3.5609042427       -0.1428470139
 C          2.7730792402       -3.5393783909        0.0747195940
 C          3.4333647965       -2.3202608153        0.2117609521
 C          2.7466207861       -1.1060115425        0.1404104291
 C          5.5264960274        0.8784199776        1.3228213696
 C          6.8853201074        0.9155593278        1.4170234389
 C          7.7010019672        0.2849464098        0.4508187482
 C          9.1066581282        0.3133121021        0.5155595124
 H         10.9414847853       -0.2821787112       -0.3852303449
 H          9.8564986593       -1.4715843902       -2.2486093616
 H          7.4000145821       -1.5563459008       -2.4064032126
 H          5.1987130477       -0.9437888338       -1.5176134956
 H          4.3990914359        2.6595969264        0.0448203911
 H          3.1314781344        4.7497068719        0.2055433603
 H          0.6692465904        4.6828635792        0.4753128312
 H         -0.5030163289        2.5330636181        0.4602958917
 H         -1.0438489321        1.3683850314       -1.6242382611
 H         -3.4982303766        1.2964301147       -1.7029006626
 H         -4.4401110838       -2.8046927077       -0.0114739910
 H         -6.2101127857       -4.5173026033       -0.0025020251
 H         -8.5771812139       -3.8914460747       -0.0436525870
 H         -9.2518608553       -1.5134974414       -0.1255097221
 H         -9.3133117883        1.2290403129       -0.2056967978
 H         -8.7461120212        3.6357819743       -0.2551302204
 H         -6.4117128960        4.3706582880       -0.1719409408
 H         -4.5672581053        2.7418953284       -0.0665812580
 H         -3.5295630310       -1.3142895663        1.6792142876
 H         -1.0737399956       -1.2726228986        1.7336482710
 H         -0.3683959347       -2.3983357371       -0.3351646476
 H          0.8938236654       -4.4963620181       -0.2882945718
 H          3.3366899434       -4.4589372610        0.1266473527
 H          4.4990987943       -2.3186247462        0.3815881592
 H          4.9126424707        1.3465583250        2.0790162043
 H          7.3614582214        1.4274898394        2.2416544775
 H          9.5786875076        0.8373651448        1.3348091400
