  67
 
 O          4.6145842775       -0.1636981900       -1.7253810461
 P          3.3537761073       -0.0358816466       -0.9672098308
 C          2.0039015011        0.6247975994       -1.9947721709
 C          1.6450427954        1.9619740937       -1.9462715461
 C          0.7117106676        2.4513977148       -2.8437080889
 C          0.1431187962        1.6089443158       -3.7836835839
 C          0.5079335019        0.2735427377       -3.8340847015
 C          1.4437982634       -0.2183503457       -2.9440262473
 C          3.5129665043        1.0346868284        0.4951504203
 C          4.7741145691        1.5332077411        0.7927570694
 C          4.9564082955        2.3210300437        1.9157718790
 C          3.8807757118        2.5959561304        2.7446612025
 C          2.6228637636        2.0905662586        2.4497020807
 C          2.4330750606        1.3078854352        1.3260016979
 C          2.8006714360       -1.6246095758       -0.3007973632
 C          3.8024876758       -2.6473210180       -0.0977091156
 C          3.4759481093       -3.8956824493        0.4155249650
 C          2.1865051590       -4.2210960134        0.7666510342
 C          1.1577489559       -3.2239554523        0.5749900653
 C          1.5238255536       -1.9344099298        0.0600450835
 O          0.4209131897       -1.1288340578       -0.0464808923
 C         -0.6406096931       -1.8809461999        0.3393508810
 C         -1.9470775907       -1.4829375124        0.3486166085
 P         -2.3206808534        0.1575341279       -0.3449598673
 O         -1.8429900745        0.3129530192       -1.7308044836
 C         -1.6135668681        1.3615962898        0.8195948241
 C         -1.2224292954        2.5858239302        0.2958155452
 C         -0.7572571960        3.5815631830        1.1357787108
 C         -0.6906103174        3.3546067463        2.5012522659
 C         -1.0662757153        2.1263133071        3.0238159058
 C         -1.5267946841        1.1264095991        2.1856950936
 C         -4.1233406064        0.3569602558       -0.1921956123
 C         -4.8562655848        0.4311146809       -1.3683222582
 C         -6.2304488160        0.5889191638       -1.3202659076
 C         -6.8713671884        0.6743267855       -0.0948544721
 C         -6.1393382263        0.6065921075        1.0812102617
 C         -4.7659113368        0.4498622767        1.0366661296
 C         -2.9055114781       -2.4307186193        0.7984666990
 C         -2.5148327346       -3.7134353841        1.2201242029
 C         -1.2119377353       -4.1260681576        1.2047676417
 C         -0.2131609920       -3.1990748494        0.7483442155
 H          2.0942296160        2.6114708043       -1.2067993014
 H          0.4297116601        3.4941606260       -2.8097480638
 H         -0.5898299878        1.9923907126       -4.4781155769
 H          0.0610820029       -0.3839346757       -4.5654594773
 H          1.7495247741       -1.2572501714       -2.9749114075
 H          5.5935930623        1.3004676833        0.1271002298
 H          5.9354378175        2.7163316291        2.1433826609
 H          4.0216745642        3.2049662145        3.6253950442
 H          1.7856912897        2.3076634928        3.0949103842
 H          1.4548904689        0.9196898129        1.0793863285
 H          4.8147215731       -2.3982149782       -0.3750177038
 H          4.2623299186       -4.6246657681        0.5440799376
 H          1.9253472289       -5.1833080840        1.1719904374
 H         -1.2834287277        2.7304779900       -0.7737427461
 H         -0.4520235005        4.5342075964        0.7286533944
 H         -0.3398347229        4.1361607746        3.1593927549
 H         -1.0025509016        1.9472123399        4.0876127916
 H         -1.8102672088        0.1622649671        2.5855775689
 H         -4.3298229234        0.3660090613       -2.3105183804
 H         -6.7995465893        0.6450291596       -2.2366373522
 H         -7.9436563452        0.7974714149       -0.0552009766
 H         -6.6413030883        0.6772555498        2.0350855141
 H         -4.1906847584        0.4022557314        1.9494466723
 H         -3.9476458890       -2.1546691779        0.8016842493
 H         -3.2847271011       -4.3915798515        1.5577440079
 H         -0.9189235775       -5.1140087519        1.5175413167
