  171
 
 C         -8.7143087792        4.9269308490       -0.5964464297
 C         -7.2184552725        5.2404192945       -0.6953592452
 C         -6.8268578418        6.0760640958        0.5311517249
 C         -6.9852698630        6.0578161778       -1.9756057415
 C         -6.3626160857        3.9829140168       -0.7522756181
 C         -4.9710174953        4.1084966980       -0.8453059830
 C         -4.1214663156        3.0241921001       -0.9460716428
 C         -4.6788987269        1.7550837121       -0.9439684159
 C         -6.0778300990        1.6024368630       -0.8581197886
 C         -6.9083269225        2.7080786358       -0.7579588136
 C         -6.3444598118        0.1927141548       -0.9562871432
 C         -7.5164222351       -0.5488330934       -0.9377258725
 C         -7.4621056170       -1.9289468620       -1.0651518912
 C         -8.7091026335       -2.8025016481       -1.0834068881
 C        -10.0003930569       -1.9863226733       -0.9711644945
 C         -8.7552828131       -3.5845327221       -2.4050942487
 C         -8.6591406992       -3.7834906359        0.0971443653
 C         -6.2052965966       -2.5364651107       -1.1819368180
 C         -5.0248029447       -1.8209758939       -1.2021699689
 C         -5.0953411378       -0.4400401211       -1.1120599232
 N         -4.0888174645        0.5108903505       -1.1044296125
 C         -2.7394227858        0.2666164592       -1.3597827899
 C         -2.3720767963       -0.5931468695       -2.3964709280
 C         -1.0411962558       -0.8323885917       -2.6692680175
 C         -0.0489078600       -0.2078322778       -1.9190170009
 N          1.3213429384       -0.4340870963       -2.2137375993
 C          1.8796069316       -1.6786357669       -1.9629089394
 C          1.1026431134       -2.7081080538       -1.4189722200
 C          1.6458195959       -3.9512031244       -1.1713021743
 C          2.9804424633       -4.1995444483       -1.4514887530
 C          3.7611953484       -3.1831803854       -1.9689271475
 C          3.2324501666       -1.9266440281       -2.2283485293
 C          4.1508731337       -0.8545672392       -2.7512318762
 C          4.9711679714       -1.3320468404       -3.9352009517
 C          4.5201893812       -1.7974368164       -5.1504525687
 C          5.4564758396       -2.1728225966       -6.1055982377
 C          6.8148952138       -2.0786811660       -5.8430933241
 C          7.2730788735       -1.6085991335       -4.6220642877
 C          6.3445456813       -1.2341847476       -3.6645591592
 C          6.5178589792       -0.7102915179       -2.3165323613
 C          7.6629272950       -0.3600043437       -1.6161076981
 C          7.4971509709        0.1780492934       -0.3476831241
 C          6.2206428523        0.3149197846        0.2182555689
 C          5.0794298448       -0.0311944131       -0.4768875981
 C          5.2463295643       -0.5268170797       -1.7527312942
 C          6.3060934378        0.9826821204        1.5868839128
 C          7.7890402595        1.2472242747        1.6952610228
 C          8.4744631970        1.8653581365        2.7197103470
 C          9.8557119749        1.9763118918        2.6229720022
 C         10.5330305829        1.4709603385        1.5230245192
 C          9.8485390302        0.8494736627        0.4902634102
 C          8.4700935727        0.7393599754        0.5784905230
 C          5.8061651383        0.0580611877        2.6672764354
 C          6.6504145651       -0.8350703968        3.3077173221
 C          6.1694295056       -1.7022889867        4.2731744525
 C          4.8251386882       -1.6739565799        4.6126548270
 C          3.9692935226       -0.7973653453        3.9803803326
 C          4.4434552899        0.0678073080        2.9885602603
 N          3.5693935081        0.9448247053        2.3584093598
 C          2.2055116110        0.5672307362        2.3062069928
 C          1.1719302435        1.3441032152        2.8434606006
 C         -0.1326651552        0.9276875167        2.7427015559
 C         -0.4592366500       -0.3086045834        2.1469885866
 C         -1.8086252659       -0.7478124137        2.0259310564
 N         -2.8072016706        0.1053963234        2.2550752293
 C         -4.0433851541       -0.3269104968        2.1236075070
 C         -5.1356176709        0.6036795177        2.2766130872
 C         -4.8869849548        1.9671800654        2.4782400833
 C         -5.9297517836        2.8514704732        2.6385390389
 C         -7.2424005167        2.4006791159        2.5965017804
 C         -7.5006032706        1.0527221146        2.3896823812
 C         -6.4627739914        0.1602146718        2.2299037171
 N         -4.3354583206       -1.6411988684        1.8820297785
 C         -3.3021345581       -2.4412990507        1.6980424683
 C         -3.5697331812       -3.9084188624        1.4472844005
 C         -2.5477600088       -4.7791899889        2.1842804925
 C         -2.7648989832       -4.7163307353        3.6930948453
 C         -4.1812274388       -5.1568918900        4.0492091808
 C         -5.2008919182       -4.2718751442        3.3394799398
 C         -4.9943426498       -4.3092831104        1.8280371119
 N         -2.0469149686       -2.0577613452        1.6801676608
 C          0.5982286992       -1.1123093432        1.6727481604
 C          1.8936947279       -0.6756773000        1.7338545876
 C          4.0588262641        2.0912767073        1.7484510932
 C          3.2152039945        3.1363520702        1.3598370528
 C          3.7333449971        4.3022808298        0.8339978220
 C          5.1015847578        4.4543912485        0.6782147968
 C          5.9404138091        3.3969049621        0.9852635331
 C          5.4376260042        2.2135815880        1.4985389990
 C          3.4167947188        0.4230838635       -3.0839098774
 C          4.1221296880        1.4655229555       -3.6685947959
 C          3.5092306590        2.6638585195       -3.9812116474
 C          2.1575258331        2.8210541134       -3.7186891931
 C          1.4391802350        1.7964676988       -3.1400132566
 C          2.0574916040        0.5886445446       -2.7945350647
 C         -0.4108592534        0.6597816409       -0.8941270214
 C         -1.7422779970        0.8914046928       -0.6113241474
 H         -8.9309643157        4.3437359091        0.2953133505
 H         -9.0585487145        4.3813857168       -1.4720420232
 H         -9.2762702536        5.8569502975       -0.5373460462
 H         -5.7784320672        6.3592669732        0.5025819109
 H         -7.4247623114        6.9843543920        0.5706285351
 H         -7.0031445391        5.5059400480        1.4401319299
 H         -7.6150344233        6.9450337218       -1.9724676466
 H         -5.9496942833        6.3751967712       -2.0599609882
 H         -7.2315906502        5.4615928676       -2.8520700879
 H         -4.5278034088        5.0925994342       -0.8521491214
 H         -3.0571544753        3.1750625320       -1.0439252032
 H         -7.9712757398        2.5479320087       -0.7004617258
 H         -8.4520354518       -0.0294002997       -0.8192523699
 H        -10.8561737339       -2.6576076250       -1.0049001484
 H        -10.0912273191       -1.2832012245       -1.7958582057
 H        -10.0382999578       -1.4419243688       -0.0307262969
 H         -8.7718919352       -2.8965734871       -3.2480665392
 H         -7.8915765239       -4.2346898192       -2.5123979123
 H         -9.6514937110       -4.2000907234       -2.4428402791
 H         -9.5614113654       -4.3911587635        0.1173929871
 H         -8.5888852495       -3.2388624933        1.0367648597
 H         -7.8028975553       -4.4480429237        0.0249084635
 H         -6.1416817898       -3.6109656084       -1.2615364748
 H         -4.0759610058       -2.3320411849       -1.2728311319
 H         -3.1375182809       -1.0493007019       -3.0054333138
 H         -0.7637973354       -1.4919670849       -3.4782251598
 H          0.0670723330       -2.5245584004       -1.1799776591
 H          1.0228899419       -4.7277619959       -0.7528362982
 H          3.4089813433       -5.1709047779       -1.2594025152
 H          4.8065163755       -3.3580354279       -2.1773529156
 H          3.4620852986       -1.8701039526       -5.3565834986
 H          5.1215495727       -2.5421592075       -7.0637331509
 H          7.5249037568       -2.3754998674       -6.6013900648
 H          8.3319500982       -1.5373830475       -4.4231428522
 H          8.6434150542       -0.4726280124       -2.0523730183
 H          4.0911238273        0.1038769327       -0.0661561649
 H          7.9481486257        2.2542331070        3.5793738665
 H         10.4085447400        2.4591282625        3.4154311734
 H         11.6081141985        1.5645976213        1.4710604257
 H         10.3805739775        0.4587422737       -0.3640823486
 H          7.6966748592       -0.8548899850        3.0428964587
 H          6.8402845521       -2.3934695661        4.7596403485
 H          4.4412757830       -2.3353229904        5.3748228540
 H          2.9248993786       -0.7693025139        4.2516072315
 H          1.4071070600        2.2578190836        3.3701836364
 H         -0.9331836650        1.5267634551        3.1507465741
 H         -3.8622974567        2.3067160469        2.5102129444
 H         -5.7216505803        3.8992661558        2.8003711596
 H         -8.0589955530        3.0950835919        2.7288564203
 H         -8.5218839793        0.7005501496        2.3587229064
 H         -6.6470062641       -0.8908341558        2.0657092623
 H         -3.4350453128       -4.0596570620        0.3671221501
 H         -2.6519507151       -5.8131793944        1.8458927190
 H         -1.5421869569       -4.4322266200        1.9405694466
 H         -2.0339182767       -5.3531526477        4.1970370070
 H         -2.6051407300       -3.6896731914        4.0354463499
 H         -4.3284297185       -5.1015630527        5.1303039682
 H         -4.3242105342       -6.1959877697        3.7421611811
 H         -5.0941394206       -3.2409829474        3.6850223491
 H         -6.2145867721       -4.6018308945        3.5785863787
 H         -5.6942454947       -3.6260170208        1.3454115331
 H         -5.1823838452       -5.3224216515        1.4628453472
 H          0.3585021476       -2.0714464911        1.2425572481
 H          2.6921145123       -1.2930565084        1.3455691734
 H          2.1478312403        3.0300392546        1.4597415802
 H          3.0616715385        5.0968882636        0.5456688042
 H          5.5094259956        5.3729451796        0.2857156308
 H          7.0014669830        3.4796269247        0.8030730160
 H          5.1720621330        1.3283382597       -3.8802621736
 H          4.0774331412        3.4625975480       -4.4318289694
 H          1.6563849168        3.7435284413       -3.9705983165
 H          0.3840611369        1.9255941375       -2.9577265960
 H          0.3574272676        1.1415005879       -0.3094242382
 H         -2.0179097637        1.5307494042        0.2119414291
