  40
 
 C          4.4993767456        2.4158889238       -0.0000209991
 C          3.0917423839        2.3951912348       -0.0000156595
 C          2.4590855996        1.1761828091       -0.0000107261
 C          3.2460906489       -0.0000144432       -0.0000112583
 C          2.4590742908       -1.1762040542       -0.0000059078
 C          3.0917186395       -2.3952189211       -0.0000054546
 C          4.4993527440       -2.4159308784       -0.0000103955
 C          5.2617693093       -1.2715126607       -0.0000157285
 C          4.6433017872       -0.0000216779       -0.0000163540
 C          5.2617819997        1.2714631625       -0.0000214494
 C          1.0786644701       -0.7193957355       -0.0000017929
 N         -0.0309597089       -1.4179392633        0.0000032268
 C         -1.1748004394       -0.7056847402        0.0000057590
 C         -2.4235322557       -1.4240791296        0.0000108006
 C         -2.4642339992       -2.8245987746        0.0000135345
 C         -3.6852436258       -3.4589599575        0.0000186154
 C         -4.8383887738       -2.6700484405        0.0000207269
 N         -4.8242326636       -1.3584138934        0.0000177239
 C         -3.6489316601       -0.7249981617        0.0000131703
 C         -3.6489253346        0.7250313696        0.0000111461
 N         -4.8242210297        1.3584568874        0.0000140958
 C         -4.8383663367        2.6700915485        0.0000125635
 C         -3.6852146278        3.4589934093        0.0000079888
 C         -2.4642102450        2.8246220530        0.0000048788
 C         -2.4235199420        1.4241020696        0.0000064570
 C         -1.1747940857        0.7056971387        0.0000034614
 N         -0.0309468151        1.4179413314       -0.0000018413
 C          1.0786711693        0.7193877878       -0.0000046068
 H          4.9941092770        3.3763586466       -0.0000248650
 H          2.5332657291        3.3187169592       -0.0000155351
 H          2.5332323997       -3.3187388461       -0.0000013326
 H          4.9940756537       -3.3764055568       -0.0000102040
 H          6.3398949472       -1.3378114580       -0.0000197366
 H          6.3399082885        1.3377512721       -0.0000256171
 H         -1.5328162522       -3.3702908709        0.0000116306
 H         -3.7575355323       -4.5352009624        0.0000205703
 H         -5.8219900969       -3.1224251486        0.0000236140
 H         -5.8219639339        3.1224763489        0.0000151992
 H         -3.7574976497        4.5352350100        0.0000070060
 H         -1.5327880750        3.3703066122        0.0000012954
