  65
 
 N        -10.7011824783       -0.0821644857       -0.1096578641
 C         -9.5545558026       -0.0883372708       -0.1058694295
 C         -8.1413135936       -0.0967807780       -0.1020745324
 C         -7.4484998040       -1.1507952649       -0.6994176247
 C         -6.0684306753       -1.1528190956       -0.6932425533
 C         -5.3613032959       -0.1122763977       -0.0962026176
 C         -3.8806181407       -0.1193575213       -0.0920730775
 C         -3.1811179181        0.4827261149       -1.1446998814
 C         -3.8523048565        1.1031916472       -2.2311000914
 C         -3.1576479678        1.6838532128       -3.2467839904
 C         -1.7477284624        1.6808284309       -3.2393868042
 C         -1.0668546254        1.0967780285       -2.2164122164
 C         -1.7518437650        0.4792684274       -1.1372689624
 C         -1.0622796249       -0.1253527627       -0.0792128265
 C          0.4197414112       -0.1263206725       -0.0705499049
 C          1.1137745774       -1.1832418766       -0.6691172652
 C          2.4935621473       -1.2314260309       -0.6827944168
 C          3.1867468097       -0.1961121765       -0.0718604197
 C          2.4993190769        0.8908906981        0.5160527745
 C          1.1121306726        0.9196572482        0.5180044259
 C          3.5038602911        1.7925863643        1.0048016050
 C          3.4512448020        3.0047115390        1.6804311396
 C          4.6371969307        3.6158844056        2.0337264302
 C          5.8637444116        3.0261098030        1.7348188127
 C          5.9414798923        1.8211920094        1.0633909698
 C          4.7530935563        1.2133267558        0.6841071120
 N          4.5469119732        0.0122793582        0.0346982519
 C          5.5484299394       -0.8495728161       -0.4348718136
 C          5.5182315054       -2.2017341040       -0.1064173066
 C          6.5060694100       -3.0478896124       -0.5749505514
 C          7.5333050093       -2.5546771032       -1.3621253697
 C          7.5671417610       -1.2084827258       -1.6859718868
 C          6.5779295210       -0.3564844481       -1.2311866797
 C         -1.7641286961       -0.7282431081        0.9717143889
 C         -1.0916648218       -1.3483398202        2.0572208534
 C         -1.7841489934       -1.9313263737        3.0729637883
 C         -3.1940818169       -1.9302280331        3.0664517342
 C         -3.8769936142       -1.3454789767        2.0451713470
 C         -3.1933634223       -0.7260948658        0.9659342624
 C         -6.0594768565        0.9359309941        0.4981471300
 C         -7.4394162817        0.9493455904        0.4985181062
 H         -7.9985060521       -1.9571607734       -1.1621068653
 H         -5.5252591155       -1.9651784435       -1.1535681137
 H         -4.9328766167        1.1054283542       -2.2366427257
 H         -3.6807600110        2.1521813565       -4.0676039799
 H         -1.2147021250        2.1472804360       -4.0547927780
 H          0.0132161473        1.0920985709       -2.2065514630
 H          0.5472559238       -1.9769146571       -1.1342272542
 H          3.0123346520       -2.0459071524       -1.1653384659
 H          0.5771286531        1.7437011983        0.9660535639
 H          2.4999023841        3.4524200135        1.9254652293
 H          4.6196485831        4.5599651174        2.5575589961
 H          6.7748496886        3.5204329348        2.0381872517
 H          6.8965185365        1.3640426166        0.8525532961
 H          4.7282907869       -2.5784054932        0.5261672350
 H          6.4780512929       -4.0961424696       -0.3166219726
 H          8.3054178267       -3.2175747425       -1.7222114315
 H          8.3638614428       -0.8204852922       -2.3032239633
 H          6.5886050775        0.6894024582       -1.4995733841
 H         -0.0115318783       -1.3458958511        2.0581518525
 H         -1.2606810564       -2.3998207416        3.8933963927
 H         -3.7266527599       -2.3981629621        3.8813928169
 H         -4.9575623558       -1.3439804431        2.0405016046
 H         -5.5091453553        1.7420101708        0.9609693209
 H         -7.9823618538        1.7616424871        0.9591617918
