  53
 
 C         -4.7045423040       -0.5232529375        1.6278586945
 C         -4.0516792584       -0.2777316062        0.2554273497
 C         -5.1196467657       -0.2953567819       -0.8534291771
 C         -3.3896967387        1.0874364738        0.2686252970
 C         -4.1570971989        2.2186122658        0.5098941472
 C         -3.6078289457        3.4872916278        0.5338395970
 C         -2.2514644875        3.6421021998        0.3122492466
 C         -1.4650279818        2.5356307858        0.0698292068
 C         -2.0195972069        1.2530506008        0.0428697778
 N         -1.2034416288        0.1600980547       -0.2024389413
 C          0.1820591551        0.3745783989       -0.4342501812
 C          0.6402956024        0.6355294280       -1.7211792655
 C          1.9862088214        0.8494956390       -1.9396262126
 C          2.8935193989        0.7845168382       -0.8835700094
 C          4.3300608591        1.0462500463       -1.1645344534
 O          4.6730518809        1.8050045379       -2.0485181988
 C          5.3213220199        0.3402527448       -0.3138813242
 C          6.5337327292        0.9706357197       -0.0410254297
 C          7.4890735698        0.3406990329        0.7330705972
 C          7.2519299789       -0.9338888695        1.2227959812
 C          6.0597963082       -1.5782246056        0.9325071696
 C          5.0939627624       -0.9460297690        0.1712099876
 C          2.4272714055        0.5338962405        0.4055251412
 C          1.0786075283        0.3334033089        0.6282341065
 C         -1.6966182473       -1.1337987485       -0.2321851185
 C         -0.8268073094       -2.1979321720       -0.4866482142
 C         -1.2876630964       -3.4971145946       -0.5225368084
 C         -2.6284494431       -3.7577482806       -0.3057714918
 C         -3.4907851956       -2.7057003765       -0.0574252856
 C         -3.0546044469       -1.3887976512       -0.0151586851
 H         -5.4395553752        0.2449480953        1.8513441386
 H         -3.9446726253       -0.5083340110        2.4070617152
 H         -5.2031685222       -1.4881984522        1.6537825476
 H         -4.6512235233       -0.1226378250       -1.8206520049
 H         -5.8623245896        0.4804674655       -0.6890755895
 H         -5.6298036815       -1.2541087312       -0.8860573004
 H         -5.2171675144        2.1132114861        0.6850072894
 H         -4.2343069182        4.3452761696        0.7243021185
 H         -1.8016140787        4.6235708448        0.3274804628
 H         -0.4068733398        2.6628294735       -0.1015106876
 H         -0.0657687006        0.6747682958       -2.5371662883
 H          2.3588649461        1.0636760304       -2.9300929321
 H          6.7037214583        1.9598001051       -0.4394978895
 H          8.4216516202        0.8394749041        0.9511970499
 H          7.9994783681       -1.4292469009        1.8246362808
 H          5.8829922359       -2.5779513138        1.3011016180
 H          4.1735179985       -1.4583686247       -0.0686043547
 H          3.1172617814        0.5201154911        1.2362907027
 H          0.7076890085        0.1450401109        1.6248494499
 H          0.2201691409       -1.9994182388       -0.6599818453
 H         -0.5975940699       -4.3036269175       -0.7213685941
 H         -3.0020068895       -4.7700135381       -0.3314673537
 H         -4.5352104948       -2.9241794696        0.1066639634
