75

C      5.823617    1.017451   -0.610235
C      4.554125    1.066279    0.273594
C      4.772630    2.058723    1.449204
C      4.323813   -0.332489    0.862082
C      5.267892   -0.887398    1.761512
C      5.072873   -2.130573    2.359010
C      3.923874   -2.847802    2.077429
C      2.993340   -2.329478    1.176780
C      3.185249   -1.086495    0.526731
N      2.232150   -0.601175   -0.435777
C      1.247080   -1.501592   -0.978054
C      1.677377   -2.572947   -1.760783
C      0.739725   -3.455824   -2.284933
C     -0.620679   -3.250488   -2.038951
C     -1.591081   -4.121686   -2.566947
C     -2.946151   -3.900227   -2.337408
C     -3.339892   -2.801883   -1.584470
C     -2.374954   -1.924371   -1.049197
N     -2.833472   -0.775083   -0.297903
C     -3.046419   -0.894152    1.119591
C     -2.896444   -2.138098    1.778100
C     -3.102096   -2.282491    3.150763
C     -3.460501   -1.181233    3.907112
C     -3.607348    0.056488    3.285910
C     -3.406491    0.224674    1.892649
C     -3.558296    1.616396    1.262561
C     -4.990156    2.133068    1.563120
C     -2.513386    2.557796    1.914734
C     -3.346086    1.646931   -0.257396
C     -3.484176    2.868261   -0.964160
C     -3.297743    2.947826   -2.342029
C     -2.966954    1.806324   -3.049332
C     -2.821414    0.594962   -2.372051
C     -3.000256    0.485981   -0.971569
C     -0.996167   -2.139165   -1.256354
N     -0.068494   -1.304112   -0.736573
C      2.286297    0.761923   -0.895202
C      1.257333    1.314098   -1.693177
C      1.304902    2.623229   -2.174272
C      2.398040    3.418174   -1.883761
C      3.428734    2.902083   -1.102600
C      3.388946    1.582575   -0.584134
H      6.069784    1.997425   -1.034393
H      5.694109    0.321660   -1.448802
H      6.705915    0.690682   -0.048431
H      4.989092    3.076313    1.107711
H      3.882687    2.110380    2.089172
H      5.617599    1.777662    2.086542
H      6.175982   -0.344886    2.015090
H      5.809217   -2.524809    3.053834
H      3.742407   -3.806129    2.555700
H      2.090775   -2.911811    1.005206
H      2.735061   -2.713895   -1.959581
H      1.079408   -4.292185   -2.890037
H     -1.292681   -4.979140   -3.166971
H     -3.691108   -4.575394   -2.750150
H     -4.395472   -2.609080   -1.407928
H     -2.604836   -3.028194    1.228193
H     -2.973305   -3.253341    3.620319
H     -3.616852   -1.277797    4.977684
H     -3.874671    0.904852    3.911909
H     -5.201343    2.182056    2.636740
H     -5.746350    1.479156    1.110608
H     -5.160291    3.144118    1.177673
H     -1.491715    2.211927    1.712159
H     -2.628162    2.617150    3.002669
H     -2.589415    3.585595    1.543096
H     -3.737253    3.785373   -0.436848
H     -3.409833    3.898847   -2.854725
H     -2.816728    1.849237   -4.124167
H     -2.555520   -0.272635   -2.969098
H      0.372682    0.736709   -1.946019
H      0.482573    3.008499   -2.770543
H      2.450704    4.436326   -2.258209
H      4.278198    3.550849   -0.902016
