  130
 
 O         -8.0147971500        2.4898095722       -2.1210933993
 P         -7.2284942799        1.3854978552       -1.5558109243
 C         -5.4680179075        1.4751669466       -2.0175261966
 C         -4.7246532884        0.3936708450       -2.4626459658
 C         -3.3834191647        0.5657403019       -2.7577525725
 C         -2.7902627391        1.8100661993       -2.6237021776
 C         -3.5423691443        2.8964096827       -2.2061640346
 C         -4.8802330788        2.7283183434       -1.9012354054
 C         -7.8610196675       -0.2538851967       -2.0157159461
 C         -8.7594061985       -0.2886290298       -3.0736498578
 C         -9.2941621754       -1.4948809970       -3.4876722971
 C         -8.9319579149       -2.6649637554       -2.8402904581
 C         -8.0406820788       -2.6274064201       -1.7796340122
 C         -7.5027007753       -1.4243390214       -1.3604410039
 C         -7.2504809414        1.4478968883        0.2748543444
 C         -8.2887927137        2.1694885717        0.8478194801
 C         -8.3639584242        2.3380915770        2.2177288697
 C         -7.3821580912        1.7932373715        3.0295553978
 C         -6.3381624223        1.0766218422        2.4734751988
 C         -6.2757775064        0.8921203898        1.0980554813
 O         -5.2792927573        0.1130953174        0.5465383173
 C         -3.9880744060        0.5314967249        0.6431897366
 C         -3.5975757857        1.8411202035        0.8827780709
 C         -2.2546219396        2.1654787203        0.8509900544
 C         -1.2834808055        1.2041740870        0.5811128985
 C          0.1405810873        1.5552885572        0.5176945771
 C          1.1045571107        0.7132672202        1.0691511444
 C          2.4446155940        1.0323399512        0.9971260141
 C          2.8657410419        2.1928466309        0.3558507439
 C          4.3335959613        2.5651296790        0.3319046294
 C          5.2371999439        1.3625602113        0.1615099739
 C          4.8814861948        0.3342707582       -0.7065953121
 C          5.7168613226       -0.7456352254       -0.9048001709
 C          6.9337024674       -0.8199419483       -0.2317097697
 N          7.7684501218       -1.9321694771       -0.4069323498
 C          7.3810918870       -3.2515486511       -0.2905950008
 C          6.1440542906       -3.7832714023        0.0467088692
 C          6.0320472677       -5.1585871425        0.1208035422
 C          7.1211978477       -5.9915078528       -0.1242735258
 C          8.3605653403       -5.4673743029       -0.4373275776
 C          8.4980952322       -4.0888019033       -0.5182555591
 C          9.6096718493       -3.2196069213       -0.7903495299
 C         10.9439179019       -3.4432356639       -1.0997154900
 C         11.7610613099       -2.3532123353       -1.3296200689
 C         11.2590592517       -1.0551781688       -1.2692579466
 C          9.9344778473       -0.8070206696       -0.9635792909
 C          9.1145599374       -1.8972859589       -0.7074805607
 C          7.3066342369        0.2156912484        0.6193309837
 C          6.4683668327        1.2980710058        0.8031071377
 C          4.6941954536        3.5637013432       -0.7517367931
 C          4.6616007307        3.4173313417       -2.1020900731
 C          5.0572866621        4.4922909419       -2.9213925402
 C          5.4976512902        5.7080202038       -2.3494295485
 C          5.5513309025        5.8831346767       -1.0014370006
 C          5.1467450334        4.8067366882       -0.1440368902
 C          5.0854424549        4.6964354499        1.2291501564
 C          5.3932132932        5.6232683797        2.2797634471
 C          5.2366687153        5.2298669599        3.5726031422
 C          4.7752025307        3.9347018963        3.9019935100
 C          4.4599913069        3.0079368211        2.8894450828
 C          4.6159094679        3.3665919707        1.5883171105
 C          1.9059540498        3.0430246061       -0.1795115087
 C          0.5632627804        2.7289102037       -0.1011238360
 C         -1.6888791024       -0.1128878882        0.3774659926
 C         -3.0254619061       -0.4529978963        0.4226320297
 P         -3.6574622372       -2.1484598765        0.1980498859
 O         -4.3284108066       -2.4197365366       -1.0776527621
 C         -4.6984991814       -2.4431743244        1.6631310278
 C         -5.8126362086       -3.2490457051        1.4844269054
 C         -6.6597420564       -3.5111358369        2.5457990503
 C         -6.3871566138       -2.9719277254        3.7920818517
 C         -5.2700112509       -2.1723477871        3.9748239560
 C         -4.4248787063       -1.9050770602        2.9130340563
 C         -2.1929527874       -3.2051665939        0.4474684576
 C         -1.4118327309       -3.1659297478        1.5958882846
 C         -0.3113419521       -3.9952393526        1.7070860466
 C          0.0104515865       -4.8677543460        0.6784712932
 C         -0.7714438571       -4.9141791912       -0.4634831457
 C         -1.8722375497       -4.0833160588       -0.5770480400
 H         -5.1804433911       -0.5796234986       -2.5545823279
 H         -2.7996403732       -0.2807191705       -3.0878950457
 H         -1.7406688676        1.9349735722       -2.8486103559
 H         -3.0844811947        3.8709383880       -2.1139212356
 H         -5.4891274431        3.5622916211       -1.5778770134
 H         -9.0291858360        0.6407118883       -3.5546830648
 H         -9.9913551022       -1.5242790522       -4.3124773004
 H         -9.3468355440       -3.6094545393       -3.1620292454
 H         -7.7621538361       -3.5434521409       -1.2798145872
 H         -6.8009333033       -1.3947667458       -0.5422494416
 H         -9.0216778894        2.6095434981        0.1870576797
 H         -9.1771111848        2.8996024308        2.6521571127
 H         -7.4247579628        1.9274499088        4.1000999891
 H         -5.5659502526        0.6489659355        3.0960130129
 H         -4.3410169033        2.6001187657        1.0785200451
 H         -1.9542956261        3.1839984234        1.0462188401
 H          0.7975946766       -0.1913364939        1.5742374709
 H          3.1754807581        0.3671059332        1.4343239540
 H          3.9356807150        0.3763169440       -1.2265108045
 H          5.4380659198       -1.5321776760       -1.5902025314
 H          5.2984411184       -3.1454094585        0.2552431384
 H          5.0792094985       -5.5971802362        0.3781232236
 H          6.9926475823       -7.0615711431       -0.0585603057
 H          9.2080340350       -6.1128482197       -0.6115359424
 H         11.3298463239       -4.4494039869       -1.1626893885
 H         12.8028027980       -2.5053151033       -1.5693216975
 H         11.9187691976       -0.2240134888       -1.4696350781
 H          9.5494082266        0.2011198560       -0.9373138585
 H          8.2453859136        0.1585991894        1.1497679974
 H          6.7665254306        2.0956130974        1.4674660721
 H          4.3294286153        2.4953845952       -2.5570266232
 H          5.0234976603        4.3888967729       -3.9940477703
 H          5.7976539520        6.5077049127       -3.0115982363
 H          5.8942835065        6.8079255105       -0.5639839128
 H          5.7381188105        6.6140260692        2.0275064529
 H          5.4638088929        5.9139355121        4.3778859534
 H          4.6632182143        3.6558404779        4.9374860138
 H          4.1047979161        2.0237165169        3.1588986796
 H          2.2158619966        3.9553396428       -0.6683917235
 H         -0.1681191888        3.3887851792       -0.5442358533
 H         -0.9554665667       -0.8777134068        0.1652957358
 H         -6.0011711508       -3.6543172012        0.5007755020
 H         -7.5319249828       -4.1322843414        2.4035541739
 H         -7.0467895595       -3.1715581966        4.6236949374
 H         -5.0612623418       -1.7522168414        4.9486666047
 H         -3.5640506212       -1.2639154692        3.0493578319
 H         -1.6622952887       -2.4859412886        2.3969127163
 H          0.2992795138       -3.9633337516        2.5981024571
 H          0.8717752102       -5.5131216391        0.7707553073
 H         -0.5223859766       -5.5959853934       -1.2634271901
 H         -2.4980392005       -4.0978109061       -1.4576479930
