  41
 
 C         -6.0201448757        0.6625965495       -0.0467887944
 O         -4.6113893231        0.7194462421       -0.0247424662
 C         -3.9224864248       -0.4356787699       -0.0845378080
 C         -4.4628373195       -1.6780453408       -0.1660806433
 C         -3.6468000289       -2.8655932308       -0.2265219925
 O         -4.0697541048       -3.9939402870       -0.3005921020
 O         -2.2855503736       -2.6950801696       -0.1959567986
 C         -1.7135723681       -1.4729128462       -0.1128956704
 C         -0.3251923842       -1.4336503782       -0.0868738254
 C          0.2859323315       -0.1953685090        0.0048692631
 C         -0.4766442820        1.0048882629        0.0411669855
 C         -1.8538561802        0.9516759301        0.0138391233
 C         -2.4835303958       -0.2912086209       -0.0560217026
 C          0.4711636902        2.0843596317        0.0938310729
 C          0.3427294869        3.4648967464        0.1607688003
 C          1.4896094200        4.2319846734        0.2223487954
 C          2.7491426605        3.6380820353        0.2315812295
 C          2.9012628574        2.2654191357        0.1656569118
 C          1.7536970899        1.4919101163        0.0815327510
 N          1.6221406780        0.1150364058        0.0272905209
 C          2.6815627567       -0.8085328414        0.0049096184
 C          3.7073004654       -0.6692087401       -0.9242276030
 C          4.7513678749       -1.5759224621       -0.9379087644
 C          4.7750183220       -2.6273158084       -0.0367838931
 C          3.7507968373       -2.7692147038        0.8846710398
 C          2.7074249200       -1.8622449910        0.9126236092
 H         -6.3842882038        0.2094613978       -0.9730964725
 H         -6.4077731353        0.1022215381        0.8086163830
 H         -6.3578736916        1.6957880605        0.0110053017
 H         -5.5238852292       -1.8590691021       -0.1914084095
 H          0.2306424286       -2.3546909748       -0.1483131119
 H         -2.4537507597        1.8464545107        0.0420873927
 H         -0.6343396595        3.9230622616        0.1684605280
 H          1.4131865008        5.3076807513        0.2728786347
 H          3.6273673671        4.2631290820        0.2951297572
 H          3.8809795316        1.8132348367        0.1900949452
 H          3.6733575230        0.1399031937       -1.6384205252
 H          5.5456311841       -1.4648377771       -1.6609435234
 H          5.5895526337       -3.3353332894       -0.0532216387
 H          3.7669130436       -3.5861559116        1.5903459511
 H          1.9168921365       -1.9572236073        1.6416261303
