  75
 
 N          0.0000247636        1.0286640539       -0.8588242496
 C         -0.0000263784       -0.0526679585       -0.4640394747
 C         -0.0000137342       -1.4074270488       -0.0974751663
 C          1.2069220546       -2.1369066756        0.0113899672
 C          2.5172401682       -1.5085588953        0.0356068233
 C          2.7265151802       -0.2379836550        0.5790453580
 C          3.9800590464        0.3267213741        0.5865617575
 C          5.0775626036       -0.3520965088        0.0403115387
 N          6.3311074503        0.2296366948        0.0251438590
 C          7.4947412864       -0.5600501243        0.0703605627
 C          7.5730775156       -1.6587415828        0.9243289191
 C          8.7242266548       -2.4227079549        0.9675149348
 C          9.8110910190       -2.0983190066        0.1715307003
 C          9.7396657723       -1.0015735079       -0.6721948023
 C          8.5899233036       -0.2363404688       -0.7281119035
 C          6.4738782266        1.6276806150       -0.0450992994
 C          5.6582754963        2.3826338854       -0.8863216647
 C          5.8138471033        3.7543131437       -0.9548612841
 C          6.7853675931        4.3884850813       -0.1971496407
 C          7.6030323608        3.6401745542        0.6342412824
 C          7.4500108030        2.2687565410        0.7151977368
 C          4.8716764317       -1.6367445158       -0.4820156413
 C          3.6206351924       -2.2037517977       -0.4720222935
 N          1.1774840497       -3.4712376258        0.0793439920
 C         -0.0000214365       -4.0582899291        0.0711283456
 N         -1.1775198133       -3.4712239965        0.0794130435
 C         -1.2069462943       -2.1368944029        0.0114399408
 C         -2.5172595652       -1.5085326511        0.0356728952
 C         -2.7265178442       -0.2379522969        0.5791047227
 C         -3.9800564945        0.3267650513        0.5866283301
 C         -5.0775700555       -0.3520461574        0.0403902236
 N         -6.3311079514        0.2297013779        0.0252199210
 C         -6.4738603655        1.6277448084       -0.0450497136
 C         -7.4499908751        2.2688468663        0.7152277638
 C         -7.6029844675        3.6402670213        0.6342552904
 C         -6.7852891527        4.3885541892       -0.1971269152
 C         -5.8137723525        3.7543556582       -0.9548213018
 C         -5.6582347634        2.3826731494       -0.8862722991
 C         -7.4947520746       -0.5599704816        0.0704301225
 C         -8.5899113309       -0.2362600562       -0.7280728658
 C         -9.7396651336       -1.0014764423       -0.6721683706
 C         -9.8111289429       -2.0981969501        0.1715865227
 C         -8.7242875038       -2.4225851898        0.9676025438
 C         -7.5731207416       -1.6586448714        0.9244168972
 C         -4.8717004735       -1.6366980558       -0.4819322897
 C         -3.6206641820       -2.2037164626       -0.4719472493
 H          1.9071929695        0.2968302988        1.0363339576
 H          4.1242697851        1.3004792752        1.0296178448
 H          6.7301090681       -1.9050027814        1.5535019867
 H          8.7745784412       -3.2715529727        1.6335244997
 H         10.7093277090       -2.6959523242        0.2101240031
 H         10.5817097632       -0.7433532467       -1.2973674806
 H          8.5316418378        0.6149734977       -1.3903472522
 H          4.9068251822        1.8886311778       -1.4851760915
 H          5.1762051447        4.3288502218       -1.6105731745
 H          6.9050214410        5.4597819372       -0.2558794184
 H          8.3610087155        4.1273552635        1.2298191492
 H          8.0835818888        1.6858344285        1.3675761879
 H          5.7032327266       -2.1767514740       -0.9087583878
 H          3.4635062029       -3.1889045052       -0.8832853566
 H         -0.0000287122       -5.1418717000        0.0834904751
 H         -1.9071847733        0.2968607424        1.0363756301
 H         -4.1242535819        1.3005296992        1.0296739867
 H         -8.0835738752        1.6859447180        1.3676123968
 H         -8.3609522907        4.1274696612        1.2298255434
 H         -6.9049276919        5.4598513998       -0.2558761320
 H         -5.1761279000        4.3288700720       -1.6105504046
 H         -4.9067935730        1.8886481063       -1.4851197366
 H         -8.5316059087        0.6150489324       -1.3903124746
 H        -10.5817075563       -0.7432280381       -1.2973313401
 H        -10.7093849517       -2.6958003684        0.2101916284
 H         -8.7746599511       -3.2714278015        1.6336135750
 H         -6.7301581407       -1.9049243000        1.5535907289
 H         -5.7032653783       -2.1766961668       -0.9086695372
 H         -3.4635497391       -3.1888705482       -0.8832123761
