  93
 
 F         -2.7878091990       -2.8123128911       -2.5348515706
 C         -2.7030965257       -3.3382356039       -1.3053952536
 F         -1.5637060559       -2.8531017875       -0.7678263501
 F         -2.5058392010       -4.6553968580       -1.4633022894
 C         -3.8930515081       -3.0209030405       -0.4457815101
 C         -4.2723466457       -3.8981597266        0.5614789535
 C         -5.3308723561       -3.5608917541        1.3885972515
 C         -5.9858187444       -2.3537051408        1.2315371436
 C         -5.6014729686       -1.4775820880        0.2178228799
 N         -6.2012635707       -0.2190287916        0.0976359407
 C         -5.5047963692        0.9780261030        0.1455341592
 C         -4.0542108081        1.0569290724        0.2364617684
 C         -3.3168510342        0.2424602313        1.0950214294
 C         -1.9387428424        0.2953648342        1.0913984250
 C         -1.2585006322        1.1718044357        0.2476776074
 C          0.2088548741        1.1869586063        0.2167519367
 C          0.9255897778       -0.0082967551        0.2330572351
 C          2.3047442835       -0.0016269415        0.1925658154
 C          3.0129425336        1.1982085270        0.1488916215
 C          4.4806738890        1.2030008672        0.1147201617
 C          5.1772564826        0.2752760599       -0.6583167530
 C          6.5564386694        0.2685498369       -0.6888131201
 C          7.2806164542        1.1892884131        0.0670536724
 C          8.7338621972        1.2289912962        0.0621025525
 N          9.4169818954        2.3386190617        0.1381448160
 C         10.7340918454        1.9836879175        0.0545809983
 C         11.8820102614        2.7681145563        0.0885870877
 C         13.0984407671        2.1259453008        0.0005222411
 C         13.1877066032        0.7365319106       -0.1089780627
 C         12.0618190644       -0.0615769258       -0.1464481305
 C         10.8349921691        0.5784491695       -0.0788272289
 N          9.5384474179        0.1134721420       -0.0713376963
 C          9.1545462102       -1.2365361763       -0.0586825350
 C          8.3077652046       -1.7112175340        0.9385593806
 C          7.9389222515       -3.0429198486        0.9480550521
 C          8.4186930087       -3.9081949152       -0.0219399597
 C          9.2679805381       -3.4368311161       -1.0087272241
 C          9.6361614494       -2.1037495007       -1.0333539115
 C          6.5883863709        2.1352563288        0.8228485746
 C          5.2101585217        2.1396298378        0.8467223182
 C          2.2943645960        2.3924119615        0.1371793710
 C          0.9147630279        2.3868531636        0.1627395130
 C         -2.0021513838        2.0266545624       -0.5643257712
 C         -3.3802321682        1.9705591567       -0.5721195494
 N         -6.3000528051        2.0094816998        0.0917234097
 C         -7.5644267577        1.5104850972        0.0120128803
 C         -8.7865274939        2.2373960776       -0.0208615054
 C         -8.8003973063        3.6348642478        0.0396861463
 C         -9.9922023563        4.3150570993        0.0502200862
 C        -11.1883161669        3.6011585254        0.0050486412
 C        -11.1859551798        2.2276105779       -0.0625034687
 C         -9.9884680844        1.4960920982       -0.0872309316
 C         -9.9497732075        0.0488822641       -0.2037568653
 C        -11.1189047897       -0.7064088568       -0.3740197118
 C        -11.0885037745       -2.0700204837       -0.5446136604
 C         -9.8711188376       -2.7429080165       -0.5754366604
 C         -8.7033129304       -2.0424990932       -0.4009888895
 C         -8.7146902697       -0.6564328967       -0.1871062369
 C         -7.5361217367        0.1186682278        0.0015049917
 C         -4.5550132746       -1.8179586549       -0.6337131474
 H         -3.7458828887       -4.8303653538        0.6925464605
 H         -5.6346627692       -4.2367839815        2.1725444331
 H         -6.7937764317       -2.0764272237        1.8923387154
 H         -3.8215583087       -0.4229438013        1.7806633709
 H         -1.3789670208       -0.3396265756        1.7617761151
 H          0.3926835792       -0.9478832675        0.2507163009
 H          2.8439276007       -0.9375052995        0.2142187511
 H          4.6291838056       -0.4321707160       -1.2631606575
 H          7.0701210882       -0.4415721094       -1.3200961962
 H         11.8078703995        3.8391710941        0.1857897514
 H         14.0094353267        2.7057193453        0.0233928125
 H         14.1628347462        0.2755038611       -0.1639087210
 H         12.1361891975       -1.1366257798       -0.2182138421
 H          7.9436580281       -1.0327994040        1.6957970407
 H          7.2793671074       -3.4079311809        1.7209906159
 H          8.1310342410       -4.9485376407       -0.0084107607
 H          9.6421412686       -4.1078217217       -1.7675976383
 H         10.2830266707       -1.7255038388       -1.8110793346
 H          7.1555539229        2.8578148964        1.3885777878
 H          4.6880779542        2.8622574729        1.4565151654
 H          2.8245947761        3.3320542797        0.0848918016
 H          0.3749761883        3.3227027135        0.1615924195
 H         -1.4910869200        2.7173688539       -1.2185210690
 H         -3.9563763751        2.6187471039       -1.2141960785
 H         -7.8520151244        4.1470413522        0.0858574750
 H        -10.0088577151        5.3936807866        0.0992866871
 H        -12.1290539805        4.1322282525        0.0227845771
 H        -12.1362066645        1.7185854430       -0.0922073391
 H        -12.0775439353       -0.2138328077       -0.3864624496
 H        -12.0102074032       -2.6177409467       -0.6736226067
 H         -9.8431584274       -3.8094109865       -0.7424800836
 H         -7.7609672819       -2.5652959602       -0.4534633850
 H         -4.2570190342       -1.1463447304       -1.4240461875
