  66
 
 O         -2.0579566399        1.9584976412       -3.7080856096
 S         -0.7176066257        2.1073474638       -3.2115424401
 O          0.3743432846        2.1354833404       -4.1432444783
 C         -0.6429352935        3.5770385949       -2.1778003875
 C         -1.8031521905        4.0722529732       -1.6105477710
 C         -1.7004349405        5.1500575118       -0.7451367334
 C         -0.4344944757        5.6582749303       -0.4839261038
 N          0.6724824095        5.1835586493       -1.0307599581
 C          0.5716207220        4.1666136999       -1.8676667557
 C         -0.4024509814        0.8592323940       -1.9596391206
 C          0.9003873329        0.6793019050       -1.5482196096
 C          1.1616896811       -0.1544408173       -0.4611713218
 N          2.4729017879       -0.2989580175        0.0136007541
 C          3.2126464791        0.8340341428        0.3828946399
 C          2.6612799679        2.1088386433        0.4134523409
 C          3.4234921107        3.2091844945        0.7748769982
 C          4.7464013362        3.0495420840        1.1347454989
 C          5.2999253206        1.7783973897        1.1563652866
 C          4.5428251110        0.6790307913        0.7933245706
 O          5.1505876491       -0.5473296274        0.8766771307
 C          4.4238878191       -1.6440085266        0.4893075733
 C          5.0668533360       -2.8676974956        0.5371508668
 C          4.4131251658       -4.0190752532        0.1261729656
 C          3.1218980949       -3.9327399799       -0.3534027674
 C          2.4720126440       -2.7087405984       -0.4006866491
 C          3.0993102876       -1.5520442810        0.0431381112
 C          0.1052708664       -0.8167897195        0.1595541703
 C         -1.2024758868       -0.6472947831       -0.2878644220
 N         -2.2557582035       -1.3256527842        0.3473950058
 C         -3.0640626649       -2.2169411990       -0.3716036366
 C         -2.8426628866       -2.5072030991       -1.7114030082
 C         -3.6574469125       -3.4027160151       -2.3874684052
 C         -4.6980469180       -4.0307410204       -1.7336854176
 C         -4.9126507092       -3.7750456209       -0.3879410138
 C         -4.1013669138       -2.8847022576        0.2913187731
 O         -4.3554945809       -2.7111864755        1.6291270955
 C         -3.5740366163       -1.8162142181        2.3125547225
 C         -3.8684035925       -1.6221546743        3.6498466709
 C         -3.1447706565       -0.7088151287        4.4015167218
 C         -2.1406150119        0.0220945505        3.8001307952
 C         -1.8401898715       -0.1700239575        2.4598673320
 C         -2.5315729773       -1.1064340779        1.7020770584
 C         -1.4604432387        0.2211748711       -1.3488376326
 H         -2.7498434818        3.6199785420       -1.8643635325
 H         -2.5747760717        5.5805620463       -0.2832770846
 H         -0.2956134493        6.4894572820        0.1945022147
 H          1.4882201691        3.8122048598       -2.3173699194
 H          1.6981570130        1.1758735584       -2.0762034517
 H          1.6228442589        2.2534582027        0.1576539837
 H          2.9664168613        4.1863338764        0.7653558940
 H          5.3480267413        3.9009372841        1.4100478769
 H          6.3226817450        1.6149136333        1.4559433277
 H          6.0840055712       -2.8949545885        0.8935526556
 H          4.9210642437       -4.9692670977        0.1704284864
 H          2.6072021714       -4.8153225031       -0.7001428155
 H          1.4716088036       -2.6558066055       -0.8003010018
 H          0.3002110368       -1.4639727129        1.0019826026
 H         -2.0258798312       -2.0359775986       -2.2348959593
 H         -3.4658002959       -3.6034486500       -3.4298951766
 H         -5.3373629169       -4.7242870594       -2.2562558651
 H         -5.7041152879       -4.2623461705        0.1584862722
 H         -4.6730520010       -2.1945605974        4.0825537542
 H         -3.3785467922       -0.5678233161        5.4447357178
 H         -1.5814488996        0.7517353388        4.3651693178
 H         -1.0641059334        0.4222264401        2.0003004773
 H         -2.4638082727        0.3970833924       -1.7024716148
