  71
 
 O          1.5473814079       -3.9711438494       -2.0003569556
 C          1.3111077583       -2.8868808080       -1.4185492488
 C         -0.0108575132       -2.4545467645       -1.1793800904
 C         -0.4583425971       -1.1728981370       -0.8303603064
 O          0.4848059749       -0.1753050233       -0.7271564572
 C         -1.8197560650       -0.8651073969       -0.5726693315
 C         -2.2034676280        0.3743881159        0.0168195089
 C         -3.5153837824        0.7022191505        0.2296726151
 C         -4.5371889312       -0.1865418209       -0.1198443602
 N         -5.8903931973        0.1566869086        0.0933257868
 C         -6.4549700673        1.2403181373       -0.5667065617
 C         -5.7428750477        1.9969766374       -1.4951583818
 C         -6.3328982452        3.0757925859       -2.1287642428
 C         -7.6466132311        3.4163015924       -1.8587220988
 C         -8.3815690396        2.6557613165       -0.9638642854
 C         -7.7988836577        1.5733859458       -0.3275687599
 O         -8.5909992750        0.8460037384        0.5174732967
 C         -8.0278953295       -0.2316898072        1.1447726670
 C         -8.8397202057       -0.9612059290        1.9960026067
 C         -8.3258194922       -2.0446581139        2.6897254275
 C         -6.9916346037       -2.3813370666        2.5428967736
 C         -6.1742945405       -1.6583556743        1.6927561710
 C         -6.6808721378       -0.5863224734        0.9608761613
 C         -4.1908353116       -1.4255050530       -0.6777077063
 C         -2.8824357248       -1.7549331159       -0.8942334391
 C          2.4626007525       -2.0473546728       -0.9965333728
 C          2.5446010767       -1.5405097183        0.2988497398
 C          3.6384909429       -0.7936419260        0.6842037128
 C          4.6653883881       -0.5501405595       -0.2214794642
 N          5.7738698363        0.2500247474        0.1679737121
 C          5.6160846838        1.6160509120        0.3470746909
 C          4.3963790038        2.2533779798        0.1357870803
 C          4.2759114088        3.6192119546        0.3243733283
 C          5.3666897507        4.3728322248        0.7195648003
 C          6.5925128468        3.7571112686        0.9170123545
 C          6.7226636067        2.3923323212        0.7298059681
 O          7.9637129897        1.8474630588        0.9227907920
 C          8.1032602022        0.4983591436        0.7312395591
 C          9.3610176341       -0.0438938807        0.9269023782
 C          9.5644298823       -1.4053348321        0.7656314952
 C          8.5029158467       -2.2219337769        0.4184059981
 C          7.2418557655       -1.6875639458        0.2198234398
 C          7.0234424564       -0.3199438698        0.3599250413
 C          4.6086634683       -1.0836051134       -1.5043029622
 C          3.5176058911       -1.8394763969       -1.8810236742
 H         -0.7573754331       -3.1950417895       -1.4171123497
 H          0.0353161287        0.6755941986       -0.6704161294
 H         -1.4519915764        1.0733279179        0.3609971121
 H         -3.7718025884        1.6438971191        0.6949479561
 H         -4.7246759404        1.7269764035       -1.7246408661
 H         -5.7590780115        3.6478898726       -2.8411978999
 H         -8.1060493010        4.2598265253       -2.3488304498
 H         -9.4137147831        2.8804088172       -0.7479911788
 H         -9.8690375637       -0.6591010887        2.1040515815
 H         -8.9647147556       -2.6108170562        3.3485943618
 H         -6.5767185348       -3.2102421130        3.0948522514
 H         -5.1322427607       -1.9173611188        1.5965647475
 H         -4.9773502595       -2.1116313910       -0.9578816088
 H         -2.6605214158       -2.7038201463       -1.3522607561
 H          1.7518833777       -1.7408482209        1.0027538729
 H          3.7080761589       -0.3936951229        1.6858576926
 H          3.5458100546        1.6710166111       -0.1814240749
 H          3.3212590718        4.0933730429        0.1568694480
 H          5.2724895031        5.4368067200        0.8683777337
 H          7.4636366114        4.3188881417        1.2136082045
 H         10.1656193917        0.6165688904        1.2078039588
 H         10.5477869841       -1.8208424701        0.9182764483
 H          8.6500521146       -3.2842588380        0.3017603346
 H          6.4157601202       -2.3293877610       -0.0419241085
 H          5.4175187647       -0.8970152334       -2.1960444381
 H          3.4609002634       -2.2649309227       -2.8713733941
