  59
 
 Br         8.0864077347       -3.5111151113       -2.5559449145
 C          6.7207030868       -2.4193433549       -1.7640693399
 C          5.3873570208       -2.7351608630       -2.0178934235
 C          4.3720036176       -1.9812783124       -1.4642439372
 C          4.7197502088       -0.9129879488       -0.6465158458
 C          6.0773623179       -0.5844334942       -0.4164907529
 C          7.0922055191       -1.3486488160       -0.9775483747
 C          6.0773735704        0.5843318535        0.4164188661
 C          7.0922314917        1.3485267568        0.9774776445
 C          6.7207497489        2.4192268662        1.7640007225
 Br         8.0864750200        3.5109787588        2.5558677703
 C          5.3874097810        2.7350722049        2.0178222876
 C          4.3720418647        1.9812093373        1.4641726609
 C          4.7197679006        0.9129121441        0.6464447172
 N          3.9132558865       -0.0000310596       -0.0000341975
 C          2.5104087783       -0.0000204942       -0.0000281414
 C          1.8111955913        1.1656986963       -0.3090606981
 C          0.4320580639        1.1645032762       -0.3042706836
 C         -0.2721933591        0.0000023149       -0.0000106331
 C         -1.7357377835        0.0000154907        0.0000022203
 N         -2.3582388670        1.1503216735       -0.2418987193
 C         -3.6891997709        1.1058349252       -0.2297834366
 C         -4.4209835217        2.3461771386       -0.4852765282
 C         -3.7318523336        3.5170429696       -0.7999418288
 C         -4.4267031507        4.6864058895       -1.0418021616
 C         -5.8115693789        4.6999768425       -0.9704824796
 C         -6.5026545553        3.5392763629       -0.6568699208
 C         -5.8135773897        2.3665017258       -0.4148865331
 N         -4.3927034958        0.0000384724        0.0000360600
 C         -3.6892132228       -1.1057696153        0.2298404333
 C         -4.4210111838       -2.3461018651        0.4853408077
 C         -3.7318912173       -3.5169806983        0.7999826117
 C         -4.4267548720       -4.6863344508        1.0418506921
 C         -5.8116231546       -4.6998822578        0.9705657772
 C         -6.5026973707       -3.5391683173        0.6569783272
 C         -5.8136069136       -2.3664041599        0.4149817049
 N         -2.3582529619       -1.1502791175        0.2419216790
 C          0.4320427820       -1.1645104398        0.3042402157
 C          1.8111803796       -1.1657287402        0.3090113815
 H          5.1517768278       -3.5733282503       -2.6550017345
 H          3.3411297359       -2.2165398922       -1.6755861857
 H          8.1303401283       -1.1113286908       -0.8079429268
 H          8.1303614772        1.1111901872        0.8078670323
 H          5.1518458616        3.5732403382        2.6549355697
 H          3.3411727305        2.2164863997        1.6755206986
 H          2.3539833272        2.0617733317       -0.5686990701
 H         -0.1207618070        2.0586634322       -0.5444527744
 H         -2.6546998403        3.4885052437       -0.8515529331
 H         -3.8892004043        5.5906544077       -1.2860355305
 H         -6.3525724111        5.6153071299       -1.1594788580
 H         -7.5810356794        3.5506287582       -0.6004400676
 H         -6.3346428921        1.4546984922       -0.1680599823
 H         -2.6547377867       -3.4884574863        0.8515809525
 H         -3.8892617508       -5.5905889631        1.2860827659
 H         -6.3526363044       -5.6152051918        1.1595682113
 H         -7.5810791133       -3.5505068562        0.6005589321
 H         -6.3346630731       -1.4545934857        0.1681629578
 H         -0.1207886794       -2.0586610874        0.5444309842
 H          2.3539567917       -2.0618134001        0.5686389287
