  68
 
 C          6.3083756994       -0.0064838663        2.0677608108
 O          5.1027398250        0.6475899046        2.3712018971
 C          3.9388676913        0.1114533402        1.8932957236
 C          2.7805276999        0.8347755266        2.2153144678
 C          1.5360991468        0.4366501424        1.7820715017
 C          1.4571132607       -0.6975863944        0.9872938948
 C          2.6018678794       -1.4715633710        0.7177457355
 C          3.8535046586       -1.0629427763        1.1637741890
 C          2.1551524025       -2.6097590331       -0.0346499562
 C          2.8052418309       -3.7044957350       -0.5880568123
 C          2.0625062959       -4.6310073000       -1.2919763841
 C          0.6885783612       -4.4717518403       -1.4562022426
 C          0.0188913318       -3.3900479517       -0.9169814813
 C          0.7580158735       -2.4640493615       -0.1962912893
 N          0.3454242868       -1.2971583352        0.4191187514
 C         -0.8907512872       -0.6701418617        0.2176776716
 C         -2.0631444952       -1.3231580227        0.5650636556
 C         -3.3010607245       -0.7178899740        0.3798375401
 C         -3.3830078666        0.5661330635       -0.1542860975
 C         -2.2089427918        1.2086589722       -0.5131415712
 C         -0.9650360978        0.6147668065       -0.3506333890
 N          0.1951901329        1.2984510813       -0.7442269237
 C          0.6452777718        2.4866433639       -0.1986773684
 C         -0.0040871567        3.3657691298        0.6544550470
 C          0.6884957926        4.4847174900        1.0765080177
 C          1.9977661596        4.7251726164        0.6676026134
 C          2.6528955399        3.8461374616       -0.1716759076
 C          1.9771568070        2.7162908005       -0.6110116223
 C          2.3430683776        1.6085731963       -1.4485075831
 C          3.5004063873        1.2640629709       -2.1325665500
 C          3.5063934569        0.1021578651       -2.8787523381
 C          2.3674421515       -0.6927328858       -2.9794416278
 C          1.2029572878       -0.3674632751       -2.3117561983
 C          1.2126536617        0.7646373781       -1.5116686339
 C         -4.7127066379        1.2384535602       -0.3521496789
 C         -5.8574270166        0.3747213264        0.1022175172
 C         -7.1646578284        0.8325930827        0.0112844975
 C         -8.2286881535        0.0511689556        0.4216315077
 C         -7.9939659178       -1.2141498552        0.9347835201
 C         -6.7014754677       -1.6882157522        1.0349019919
 C         -5.6341425852       -0.8971947232        0.6205265283
 O         -4.3883817630       -1.4466463036        0.7568125897
 H          6.4674611381       -0.0747446930        0.9862566185
 H          7.0952471726        0.6028890850        2.5100127960
 H          6.3436344697       -1.0110969739        2.5031070350
 H          2.8938679289        1.7231902320        2.8153796943
 H          0.6540865512        0.9936258031        2.0578260539
 H          4.7200413999       -1.6616424306        0.9351464020
 H          3.8720088121       -3.8223881451       -0.4714765438
 H          2.5496269235       -5.4903235253       -1.7285773947
 H          0.1347709673       -5.2082566168       -2.0198003074
 H         -1.0440586627       -3.2673327478       -1.0627401690
 H         -2.0253667579       -2.3056139873        1.0082514940
 H         -2.2603640380        2.1931718012       -0.9549986332
 H         -1.0134203042        3.1779237883        0.9903319996
 H          0.2049046773        5.1856646777        1.7411376454
 H          2.5058133430        5.6103798518        1.0203496169
 H          3.6719248125        4.0266960146       -0.4782701167
 H          4.3743436776        1.8958708353       -2.0805504053
 H          4.4004592066       -0.1896019664       -3.4097573138
 H          2.3922907826       -1.5817921306       -3.5918127268
 H          0.3164837152       -0.9751130439       -2.4133174319
 H         -4.8415900674        1.4894528070       -1.4120204520
 H         -4.7299773758        2.1874003654        0.1973077265
 H         -7.3420649581        1.8201146933       -0.3902106253
 H         -9.2369994004        0.4273053480        0.3413417705
 H         -8.8178270626       -1.8320477916        1.2576049445
 H         -6.4904299314       -2.6688716668        1.4312513091
