  92
 
 C         -9.1424900534       -2.4493530728       -0.7197720646
 C         -7.9880476487       -2.4597201842        0.0467043565
 C         -7.3088017613       -1.2846591642        0.3047371133
 C         -7.7740278573       -0.0760151886       -0.2133899521
 N         -7.0805326805        1.1168873641        0.0383080419
 C         -7.7904758624        2.3001023248        0.2755229410
 C         -7.3170107692        3.5203259887       -0.2075673383
 C         -8.0227191099        4.6843111902        0.0291945505
 C         -9.2126355373        4.6528575291        0.7386416263
 C         -9.6900637211        3.4429721138        1.2165378151
 C         -8.9863732111        2.2750771234        0.9935342883
 C         -5.6849214800        1.1154997342        0.0430878062
 C         -4.9688028931        1.9244531245        0.9280363689
 C         -3.5907504421        1.9030861105        0.9356902497
 C         -2.8773945595        1.0673742362        0.0750289865
 C         -1.4145061332        1.0338326741        0.1101169655
 C         -0.6665208314        2.1829576422        0.2407894450
 C          0.7313939609        2.1604755790        0.2475679342
 C          1.4464675045        0.9896728542        0.1221184649
 C          2.9115569013        0.9916930267        0.0989690708
 C          3.6299643619        1.8078769708        0.9736772671
 C          5.0080179339        1.8274418841        0.9590755099
 C          5.7179350855        1.0292310748        0.0600834248
 N          7.1148501226        1.0488819593        0.0425292532
 C          7.8054053936        0.9510670859       -1.1717634542
 C          9.0031997548        0.2403171836       -1.2501941858
 C          9.6880881391        0.1589874602       -2.4474808169
 C          9.1897143710        0.7734176301       -3.5850994397
 C          7.9966157801        1.4746777621       -3.5145056733
 C          7.3093981650        1.5697108609       -2.3196895895
 C          7.8264077554        1.1666257028        1.2439800176
 C          8.9876849577        1.9366000189        1.3072884092
 C          9.6884077728        2.0431785367        2.4934732006
 C          9.2413596290        1.3951003871        3.6337856967
 C          8.0857504755        0.6324350786        3.5772213853
 C          7.3826880134        0.5130839162        2.3937736922
 C          5.0036293604        0.2141690986       -0.8195895662
 C          3.6256897122        0.1979453601       -0.7981684789
 C          0.7153015669       -0.2283083117        0.0213957756
 N          1.3753529716       -1.3912163565       -0.0319883425
 C          0.6817789013       -2.5126767649       -0.1023319174
 C         -0.7581696508       -2.4898178471       -0.0976813759
 N         -1.4148097450       -1.3465602641       -0.0284761995
 C         -0.7181661317       -0.2056762959        0.0188988690
 C         -1.4476380666       -3.7269712621       -0.1585934957
 S         -3.1693166247       -3.9116897539       -0.1681957080
 C         -2.9977585195       -5.6262072875       -0.2630136501
 C         -1.7067507278       -6.0388347377       -0.2858805503
 C         -0.7939669230       -4.9546796451       -0.2267127337
 C          0.6330665018       -4.9778892225       -0.2327163252
 C          1.5082168164       -6.0922393086       -0.2986850968
 C          2.8125315563       -5.7235359129       -0.2862677208
 S          3.0427202241       -4.0158248810       -0.1936979881
 C          1.3283024124       -3.7727062149       -0.1700839647
 C         -3.5976388977        0.2703831273       -0.8150741486
 C         -4.9742396591        0.2959469666       -0.8365283965
 C         -8.9351096974       -0.0709939995       -0.9856666935
 C         -9.6128165682       -1.2501822892       -1.2304452886
 H         -9.6725701422       -3.3690595394       -0.9171958620
 H         -7.6151754466       -3.3882390076        0.4537532109
 H         -6.4129692646       -1.2945005897        0.9082027304
 H         -6.3963468490        3.5466238141       -0.7721289489
 H         -7.6451574869        5.6217965840       -0.3528032781
 H         -9.7635440148        5.5640553689        0.9174296353
 H        -10.6141105407        3.4083975653        1.7752935487
 H         -9.3566651545        1.3348946848        1.3755949862
 H         -5.5033670282        2.5590677686        1.6198464015
 H         -3.0559445021        2.5148400827        1.6477326318
 H         -1.1712795216        3.1358421182        0.3056618235
 H          1.2647995878        3.0972880116        0.3179179907
 H          3.0993324099        2.4225091761        1.6863323163
 H          5.5472866886        2.4642429350        1.6452902388
 H          9.3899613203       -0.2477787187       -0.3674448773
 H         10.6140925178       -0.3957277056       -2.4935365461
 H          9.7265131255        0.7059903889       -4.5194752467
 H          7.6018662844        1.9609395936       -4.3949134748
 H          6.3849963726        2.1262991201       -2.2657769086
 H          9.3333066114        2.4501280764        0.4218560442
 H         10.5854123801        2.6443646210        2.5291504437
 H          9.7898834709        1.4830741875        4.5596194011
 H          7.7324490165        0.1187784529        4.4596373133
 H          6.4869704851       -0.0895124546        2.3492468773
 H          5.5394647342       -0.4109571539       -1.5187790018
 H          3.0905918191       -0.4367714817       -1.4867380229
 H         -3.8811762831       -6.2330891282       -0.2973536005
 H         -1.4082675531       -7.0694048787       -0.3426955963
 H          1.1746689354       -7.1121721336       -0.3524841889
 H          3.6749428102       -6.3595866939       -0.3269654087
 H         -3.0672877028       -0.3624161977       -1.5089990843
 H         -5.5133437079       -0.3213503977       -1.5400265475
 H         -9.2986640803        0.8611622000       -1.3931664544
 H        -10.5097116301       -1.2326263847       -1.8325879162
