  52
 
 O          7.7731276304        0.8075462131       -0.8789257220
 C          7.1944415381       -0.0846668336        0.0431471283
 C          5.6854055337       -0.0732047319        0.0432584217
 C          4.9765168112       -0.4173741555        1.1872644235
 C          3.5947532408       -0.4206304905        1.1820209740
 C          2.8905613042       -0.0686628819        0.0342878471
 C          1.4120922470       -0.0675869219        0.0315282633
 C          0.7148672353        1.1475757436       -0.0165714805
 C          1.3907691677        2.3960343473       -0.0374956670
 C          0.7045764426        3.5704438845       -0.0705033521
 C         -0.7046244541        3.5704243092       -0.0707763904
 C         -1.3907891612        2.3959931385       -0.0379660362
 C         -0.7148495656        1.1475621546       -0.0167198499
 C         -1.4120630029       -0.0675926868        0.0314015156
 C         -2.8905472814       -0.0686824891        0.0343348392
 C         -3.5943999851       -0.4194286321        1.1826655620
 C         -4.9761358724       -0.4156419417        1.1884817368
 C         -5.6853885124       -0.0721723269        0.0444671839
 C         -7.1944521991       -0.0824472565        0.0454934763
 O         -7.7732043118        0.8069460090       -0.8792179285
 C         -4.9844428448        0.2721140421       -1.1038685184
 C         -3.6022494804        0.2789236112       -1.1088962560
 C         -0.7148198456       -1.2829650047        0.0777687037
 C         -1.3912502151       -2.5311623495        0.0975957192
 C         -0.7046328506       -3.7054476381        0.1290685969
 C          0.7045563571       -3.7054718545        0.1287831500
 C          1.3912154963       -2.5312121974        0.0971947888
 C          0.7148407710       -1.2829761970        0.0777060073
 C          3.6019391035        0.2801086437       -1.1088238978
 C          4.9841049513        0.2727938911       -1.1043716452
 H          7.4479017606        1.6957342090       -0.6938732552
 H          7.5524449106       -1.0767005803       -0.2542687701
 H          7.5645150999        0.1155706988        1.0604811844
 H          5.5118990525       -0.6866837948        2.0868398729
 H          3.0497198423       -0.6884243395        2.0758208974
 H          2.4705971272        2.3966514361       -0.0197779671
 H          1.2335519218        4.5121588251       -0.0870283991
 H         -1.2335983354        4.5121362576       -0.0875098603
 H         -2.4706258720        2.3965350742       -0.0206532534
 H         -3.0490692973       -0.6865528085        2.0764859993
 H         -5.5112729553       -0.6838872067        2.0885204920
 H         -7.5634704619        0.1217390807        1.0624277022
 H         -7.5535557572       -1.0752306765       -0.2480273326
 H         -7.4476144924        1.6956295098       -0.6972006194
 H         -5.5329335667        0.5317691149       -1.9978468731
 H         -3.0647419535        0.5464661796       -2.0072744365
 H         -2.4710275512       -2.5321045786        0.0793015589
 H         -1.2338590204       -4.6469729182        0.1441109207
 H          1.2337378199       -4.6470267558        0.1435044722
 H          2.4709848039       -2.5322024268        0.0785048502
 H          3.0641276338        0.5488742923       -2.0066523275
 H          5.5323730431        0.5333820089       -1.9982124496
