66

O      6.237282    1.762842   -2.289741
S      6.002340    1.684364   -0.858943
O      6.056933    2.881441   -0.039000
C      7.173351    0.535580   -0.173498
C      7.983881   -0.225269   -1.020359
C      8.898941   -1.121079   -0.467604
C      9.004830   -1.246780    0.918955
C      8.201281   -0.474279    1.759642
C      7.283630    0.424036    1.216029
C      4.399917    0.944887   -0.641217
C      4.011577   -0.099840   -1.481843
C      2.752521   -0.682979   -1.316069
C      1.867273   -0.229225   -0.322093
C      0.540030   -0.844145   -0.151524
C      0.407255   -2.240113    0.026351
C     -0.843418   -2.846945    0.198023
C     -1.975723   -2.050196    0.192237
C     -1.866864   -0.656749    0.013381
C     -0.621605   -0.053044   -0.157814
C     -3.270841    0.016340    0.047378
C     -3.286328    1.010698    1.246676
C     -3.676626    0.615396    2.541041
C     -3.647684    1.512258    3.613338
C     -3.211564    2.819502    3.422093
C     -2.793433    3.229777    2.160862
C     -2.821529    2.334237    1.088821
C     -3.684791    0.654183   -1.311561
C     -4.750921    1.577018   -1.375953
C     -5.157266    2.138000   -2.589335
C     -4.520674    1.776302   -3.771604
C     -3.486104    0.846627   -3.741931
C     -3.078521    0.284898   -2.528121
C     -4.160550   -1.241548    0.273635
C     -5.545555   -1.314093    0.395538
C     -6.132446   -2.564689    0.595911
C     -5.342970   -3.721823    0.671741
C     -3.952547   -3.648354    0.548142
C     -3.366862   -2.407139    0.348680
C      2.279912    0.834328    0.501125
C      3.536929    1.424458    0.344396
H      7.915015   -0.125945   -2.101345
H      9.535414   -1.718048   -1.116667
H      9.722639   -1.943481    1.346091
H      8.296732   -0.568904    2.838821
H      6.670108    1.033298    1.875823
H      4.670813   -0.458423   -2.269167
H      2.454208   -1.489379   -1.984195
H      1.295951   -2.868914    0.046759
H     -0.910785   -3.920742    0.337681
H     -0.553982    1.020975   -0.307216
H     -3.999216   -0.403906    2.742655
H     -3.959235    1.182517    4.601236
H     -3.187715    3.513889    4.257484
H     -2.439525    4.246172    2.008693
H     -2.473123    2.684504    0.118410
H     -5.280289    1.871551   -0.471243
H     -5.975179    2.853484   -2.608774
H     -4.837273    2.209319   -4.716508
H     -2.997421    0.548193   -4.665979
H     -2.283985   -0.457522   -2.556715
H     -6.162928   -0.423602    0.339734
H     -7.212871   -2.643686    0.692154
H     -5.819654   -4.686983    0.826512
H     -3.353772   -4.550978    0.607475
H      1.617502    1.207692    1.281289
H      3.825510    2.250035    0.991211
