  45
 
 C         -2.3317236108        2.5457005145       -2.5706702413
 C         -0.9478139657        2.5833552900       -2.6087867280
 C         -0.2181198209        1.7561547154       -1.7735009742
 C         -0.8461654545        0.8871621132       -0.8959236699
 C         -2.2418532109        0.8525016504       -0.8608513324
 C         -2.9756426766        1.6867669019       -1.7032676575
 N         -2.8945744708       -0.0001590394        0.0002182796
 C         -2.2416189964       -0.8527532326        0.8611761660
 C         -2.9751787169       -1.6871134594        1.7036984857
 C         -2.3310232666       -2.5459807800        2.5709911773
 C         -0.9471033117       -2.5834737316        2.6088909059
 C         -0.2176369915       -1.7561789117        1.7734997183
 C         -0.8459219106       -0.8872508282        0.8960298341
 C         -0.0000000298        0.0000098827       -0.0000088038
 C          0.8460520049        0.8960639249        0.8871117090
 C          0.2178952153        1.7736211766        1.7560442147
 C          0.9474835159        2.6091060420        2.5831369705
 C          2.3313979530        2.5712138569        2.5454326328
 C          2.9754268223        1.7038179565        1.6865746209
 C          2.2417441109        0.8611984478        0.8524206938
 N          2.8945744207        0.0001377283       -0.0001655247
 C          2.2417279819       -0.8609657641       -0.8526961320
 C          2.9753944852       -1.7035167586       -1.6869335308
 C          2.3313488583       -2.5709549524       -2.5457362761
 C          0.9474336766       -2.6089556664       -2.5833042132
 C          0.2178614987       -1.7735397686       -1.7561276248
 C          0.8460352485       -0.8959442952       -0.8872459889
 H         -2.9116493476        3.1867806685       -3.2180011580
 H         -0.4399263429        3.2533595653       -3.2854021740
 H          0.8618521608        1.7815771455       -1.7992302518
 H         -4.0559695691        1.6521308237       -1.6682234388
 H         -3.9029017531       -0.0002213628        0.0002937178
 H         -4.0555151238       -1.6526044449        1.6688231256
 H         -2.9107724209       -3.1871369645        3.2184049148
 H         -0.4390309975       -3.2534257165        3.2854194510
 H          0.8623418531       -1.7814749901        1.7990606156
 H         -0.8620799336        1.7991900138        1.7814911842
 H          0.4395100899        3.2857118496        3.2530859289
 H          2.9112416405        3.2187145907        3.1864154820
 H          4.0557581370        1.6689446069        1.6519042120
 H          3.9029017032        0.0001812762       -0.0002189666
 H          4.0557264754       -1.6685580768       -1.6523703677
 H          2.9111800639       -3.2184040476       -3.1867825655
 H          0.4394471916       -3.2855940317       -3.2532103728
 H         -0.8621141854       -1.7991949179       -1.7814660477
