53

O     -0.704213   -1.941039   -1.642957
C     -1.686858   -1.558594   -1.017546
O     -2.945436   -2.023875   -1.370903
C     -4.108646   -1.554496   -0.747881
C     -5.323397   -2.075243   -1.194069
C     -6.508106   -1.632385   -0.612027
C     -6.464940   -0.678615    0.404459
C     -5.236243   -0.168511    0.838557
C     -4.037102   -0.605110    0.261108
C     -2.720024   -0.118859    0.672643
O     -2.756962    0.842504    1.664175
C     -1.586715   -0.588551    0.107541
C     -0.183936   -0.181449    0.585056
C      0.220556    1.209266    0.073028
C     -0.018263    1.618678   -1.246496
C      0.349259    2.897232   -1.674505
C      0.971963    3.798226   -0.799306
C      1.345351    5.085653   -1.217611
C      1.969975    5.968846   -0.335808
C      2.230231    5.575758    0.973466
C      1.865723    4.298890    1.403837
C      1.234680    3.398943    0.529248
C      0.859866    2.110355    0.947104
C      0.892849   -1.273310    0.543997
C      2.010559   -1.305389   -0.206908
O      2.329156   -0.283809   -1.073962
C      2.947113   -2.433500   -0.144740
C      4.043245   -2.600062   -1.003540
C      4.900338   -3.699292   -0.866568
C      4.667158   -4.653454    0.122027
C      3.567638   -4.517776    0.963232
C      2.722544   -3.417869    0.810178
O      1.605095   -3.361519    1.653509
C      0.642053   -2.376402    1.514324
O     -0.367827   -2.397103    2.212284
H     -5.343825   -2.817675   -1.986426
H     -7.462655   -2.029378   -0.947379
H     -7.386794   -0.331185    0.864503
H     -5.224893    0.570481    1.636878
H     -1.929167    1.350399    1.670046
H     -0.307412   -0.008145    1.667618
H     -0.467940    0.940732   -1.968991
H      0.152484    3.179437   -2.706648
H      1.151221    5.409851   -2.237635
H      2.252906    6.962722   -0.672734
H      2.716929    6.262568    1.661094
H      2.078564    4.011696    2.431090
H      1.075284    1.803779    1.969848
H      3.293039   -0.171606   -1.098095
H      4.240449   -1.900657   -1.811455
H      5.744606   -3.815375   -1.542541
H      5.330031   -5.508950    0.223616
H      3.360488   -5.266830    1.722264
