  106
 
 N         -2.4721722409        3.2239534402        0.5187224609
 C         -1.7928313537        2.3171531425        0.2796869343
 C         -1.0235587329        1.1837872939        0.0411899697
 C          0.4232553128        1.1893865182       -0.0393130363
 C          1.2177816568        2.3934908275       -0.1273808940
 C          0.7091650452        3.6113540166       -0.6040042901
 C          1.5074723276        4.7313694776       -0.6794628968
 C          2.8406846925        4.6713423501       -0.2821462616
 N          3.6597323540        5.8297471518       -0.3424765707
 C          3.4497279818        6.8850032517        0.5333883240
 C          2.4440915001        6.8616739140        1.4979228103
 C          2.2663518920        7.9327833350        2.3550722912
 C          3.0905780952        9.0431631439        2.2740313439
 C          4.1074867627        9.0773585569        1.3340450880
 C          4.2918611264        8.0095214470        0.4715322129
 O          5.3253838511        8.0965056420       -0.4212696317
 C          5.5183700611        7.0477311551       -1.2788683312
 C          6.5627788160        7.1501607773       -2.1827954224
 C          6.7990633845        6.1297272992       -3.0894260559
 C          5.9796366877        5.0128773846       -3.0965265732
 C          4.9351744286        4.9021429342       -2.1963695134
 C          4.6943819733        5.9085231751       -1.2628483713
 C          3.3703888047        3.4639475618        0.1752045131
 C          2.5732406931        2.3476386896        0.2453563937
 N          1.0932195077        0.0499114769       -0.0158214895
 C          0.5111166532       -1.1367307942        0.0098501714
 C          1.3939967693       -2.2775582026        0.0989498498
 C          2.7420847938       -2.1314306248       -0.2746977195
 C          3.6208200053       -3.1847261955       -0.2022742396
 C          3.1832808142       -4.4270717635        0.2588908298
 N          4.0850253901       -5.5217871870        0.3245750205
 C          5.1206814753       -5.5228328950        1.2473289178
 C          5.2998155257       -4.4880840814        2.1636363682
 C          6.3470350252       -4.5214425561        3.0667791797
 C          7.2301365016       -5.5886126664        3.0807906181
 C          7.0563971623       -6.6365247379        2.1916284122
 C          6.0102248376       -6.6112011613        1.2842830531
 O          5.8813503832       -7.6845669105        0.4453402014
 C          4.8486884932       -7.6729386771       -0.4525416984
 C          4.7305144461       -8.7638359439       -1.2976520032
 C          3.7174909844       -8.8045928381       -2.2415554635
 C          2.8314529045       -7.7448161366       -2.3451336542
 C          2.9423723364       -6.6514821490       -1.5050217129
 C          3.9424725525       -6.6008234081       -0.5357016744
 C          1.8581634852       -4.5855965210        0.6566301070
 C          0.9782084656       -3.5289007090        0.5789063323
 C         -0.9322310479       -1.2401651385       -0.0665578805
 C         -1.6149344435       -2.4281210957       -0.3027540966
 N         -2.2250110638       -3.3833930328       -0.5401883081
 C         -1.6710976193       -0.0542881754       -0.0113493239
 C         -3.1442040121       -0.1110674508       -0.0080455201
 C         -3.8755511849        0.5336392144       -1.0007472838
 C         -5.2550620326        0.4751512603       -1.0044904869
 C         -5.9193424434       -0.2235318583       -0.0037527543
 N         -7.3371630994       -0.2814623982       -0.0010120289
 C         -7.9902040144       -1.4741630525       -0.2870193188
 C         -7.3013640617       -2.6365628185       -0.6241690624
 C         -7.9888341897       -3.8048142106       -0.9043837709
 C         -9.3722906789       -3.8341091170       -0.8601836497
 C        -10.0747441969       -2.6820556462       -0.5453317715
 C         -9.3948524387       -1.5089035154       -0.2644270717
 O        -10.1471113353       -0.4009747342        0.0221712635
 C         -9.4870108224        0.7672417321        0.2962169442
 C        -10.2593874664        1.8788505605        0.5881175549
 C         -9.6523271170        3.0866628501        0.8921804158
 C         -8.2708305779        3.1750887695        0.9131629645
 C         -7.4913360914        2.0689974306        0.6217813163
 C         -8.0843139539        0.8518816040        0.2958187918
 C         -5.1975707159       -0.8653109981        0.9953305839
 C         -3.8179382946       -0.8118375482        0.9874569414
 H         -0.3152136286        3.6746033031       -0.9364699445
 H          1.1033024393        5.6605900146       -1.0544743033
 H          1.8042097719        5.9968076658        1.5726115446
 H          1.4782698940        7.8930037732        3.0907817396
 H          2.9507065319        9.8777610285        2.9422970793
 H          4.7735693222        9.9215458811        1.2531052340
 H          7.1740743030        8.0382326004       -2.1601548596
 H          7.6147361294        6.2139965418       -3.7896823261
 H          6.1486077109        4.2198611842       -3.8082272809
 H          4.2943869311        4.0350247815       -2.2121604655
 H          4.4055105332        3.4192021591        0.4815346876
 H          2.9686297797        1.4110760140        0.6058314305
 H          3.0661757457       -1.1688267096       -0.6377159250
 H          4.6493761970       -3.0633807824       -0.5099308926
 H          4.6085929942       -3.6605385120        2.1641768190
 H          6.4675461381       -3.7077505132        3.7648558992
 H          8.0473766992       -5.6132949980        3.7838097082
 H          7.7183741648       -7.4877705897        2.1858237168
 H          5.4434356131       -9.5669517797       -1.1996466720
 H          3.6288347187       -9.6576405219       -2.8951859765
 H          2.0462794045       -7.7626351342       -3.0848225214
 H          2.2537615261       -5.8266064660       -1.5966214711
 H          1.5246989186       -5.5416455997        1.0337531411
 H         -0.0383367459       -3.6678330996        0.9123597231
 H         -3.3574971106        1.0727827710       -1.7807725833
 H         -5.8205075202        0.9686709662       -1.7808844175
 H         -6.2237125346       -2.6222252347       -0.6696599311
 H         -7.4321356030       -4.6928445594       -1.1598348028
 H         -9.9074808773       -4.7449085262       -1.0763367299
 H        -11.1525426125       -2.6690514051       -0.5140351838
 H        -11.3325364861        1.7740848760        0.5747473707
 H        -10.2592229059        3.9490364022        1.1174097853
 H         -7.7874602537        4.1075436150        1.1596256930
 H         -6.4157659377        2.1458890679        0.6494455637
 H         -5.7189241367       -1.4028820881        1.7733752133
 H         -3.2557887207       -1.3068574820        1.7661974690
