  34
 
 Br         5.7158556054        3.0451435569       -0.0000337007
 C          4.9724508815        1.2979558757       -0.0000186584
 C          5.8156771687        0.1944002022       -0.0000207605
 C          5.2039491032       -1.0483654003       -0.0000147303
 C          3.8217060815       -1.1320148527       -0.0000124529
 C          3.0728842192        0.0506557018       -0.0000109719
 C          1.6255793738        0.0668046773       -0.0000132171
 N          0.8910103101        1.1541065289       -0.0000066220
 C         -0.3971703195        0.7403463564        0.0000023405
 C         -1.5900385540        1.5194952798        0.0000078359
 C         -1.6014125002        2.9188829557        0.0000069655
 C         -2.8136565271        3.5682857198        0.0000049981
 C         -3.9800577038        2.7958399844        0.0000040278
 N         -3.9905230892        1.4863589394        0.0000074306
 C         -2.8268579983        0.8311718624        0.0000096222
 C         -2.8700627433       -0.6198656259        0.0000123620
 N         -4.0661978923       -1.2075917748        0.0000169498
 C         -4.1390922492       -2.5147833947        0.0000192091
 C         -3.0221488824       -3.3558245042        0.0000183934
 C         -1.7739372654       -2.7792073517        0.0000138699
 C         -1.6696837807       -1.3816317693        0.0000098942
 C         -0.4513594948       -0.6575369839        0.0000012430
 N          0.8491891319       -1.0683322341       -0.0000076775
 N          3.6689689350        1.2416913791       -0.0000135244
 H          6.8871610549        0.3088126147       -0.0000232578
 H          5.8040596233       -1.9463451137       -0.0000105439
 H          3.3442651227       -2.0993583572       -0.0000039428
 H         -0.6597425547        3.4464569700        0.0000054673
 H         -2.8724316491        4.6457104665        0.0000038113
 H         -4.9541592943        3.2682936208        0.0000042575
 H         -5.1393506890       -2.9278592161        0.0000241283
 H         -3.1421727646       -4.4281023899        0.0000214217
 H         -0.8820829435       -3.3919202757        0.0000131439
 H          1.1693842842       -2.0216764476       -0.0000143121
