  73
 
 N          9.4357134287        0.9404636648        0.9589449554
 C          9.1398004464       -0.0943863807        0.5370922474
 C          8.9036487347       -1.3621977833        0.0046682228
 C         10.0247981460       -2.1865325332       -0.1286264567
 C          9.9491704071       -3.4024053489       -0.7647841228
 C          8.7151614181       -3.8208817359       -1.3095002105
 C          7.6050325925       -3.0405593101       -1.1941227683
 C          7.6117975482       -1.7935354723       -0.5042196623
 C          6.4279477889       -1.0551464967       -0.3113809670
 C          6.2895240955       -0.0860713182        0.7387439107
 C          5.1656532402        0.6600557505        0.8905318588
 C          4.0582016808        0.4961921189        0.0217290723
 N          2.9243732235        1.2694416246        0.1643864861
 C          2.9057100789        2.6368769792        0.4044889317
 C          3.9616378361        3.5316746985        0.4939096162
 C          3.6618273735        4.8660540424        0.7074236255
 C          2.3451208889        5.3062905106        0.8138096438
 C          1.2866596198        4.4247767512        0.6847934713
 C          1.5635536651        3.0832116255        0.4712586528
 C          0.7370345355        1.9271010652        0.2543571476
 C         -0.6304021136        1.7367137656        0.2160966812
 C         -1.1386695305        0.4516740829        0.0240647320
 C         -2.5840096642        0.2264976426       -0.0251120461
 C         -3.4176727297        1.1628752758       -0.6595675529
 C         -4.7830837914        0.9974362718       -0.7375225003
 C         -5.3393563543       -0.1302709549       -0.1464074525
 C         -4.5173929161       -1.0956047245        0.4827882248
 C         -3.1465178909       -0.9153452062        0.5404151029
 C         -5.3944658746       -2.1377365502        0.9425498531
 C         -5.1890405157       -3.3233450239        1.6342769587
 C         -6.2840553848       -4.1066220087        1.9428402586
 C         -7.5707538506       -3.7134423255        1.5828910831
 C         -7.8001175579       -2.5376084218        0.8934022164
 C         -6.7016533436       -1.7586973466        0.5605618126
 N         -6.6512443619       -0.5429831652       -0.0953055820
 C         -7.7514264744        0.1536710169       -0.6171002034
 C         -8.6542184752       -0.4935964235       -1.4554847639
 C         -9.7390541808        0.1964190789       -1.9638372535
 C         -9.9268045428        1.5324217257       -1.6502988677
 C         -9.0260127798        2.1787317093       -0.8201165368
 C         -7.9432384869        1.4949393541       -0.2991142941
 C         -0.2469130794       -0.6279521444       -0.1036409790
 C          1.1203459155       -0.4579685008       -0.0782413594
 C          1.6208761930        0.8305955993        0.0737634401
 C          4.1491618463       -0.4867445127       -0.9951581223
 C          5.2760453619       -1.2275192487       -1.1538606345
 H         10.9676121425       -1.8361371955        0.2690166264
 H         10.8226997926       -4.0281167550       -0.8609163266
 H          8.6574616744       -4.7749129420       -1.8127821998
 H          6.6686860148       -3.4074154657       -1.5857957479
 H          7.0804233600        0.0083433231        1.4641737316
 H          5.0735399316        1.3375816189        1.7263595216
 H          4.9849948709        3.2093151813        0.3836802155
 H          4.4673600158        5.5800449467        0.7856199091
 H          2.1505590070        6.3545199167        0.9840885003
 H          0.2659264589        4.7711678801        0.7419659570
 H         -1.2983418896        2.5704437547        0.3703433529
 H         -2.9676505653        2.0237248737       -1.1309920822
 H         -5.3980138607        1.7166403715       -1.2572514948
 H         -2.5261988633       -1.6415400957        1.0428637957
 H         -4.1935832330       -3.6203368427        1.9276774389
 H         -6.1463680985       -5.0335332351        2.4790822204
 H         -8.4088453524       -4.3391679678        1.8515979096
 H         -8.8025970187       -2.2326353599        0.6339296862
 H         -8.4914699864       -1.5289675957       -1.7152175231
 H        -10.4365225347       -0.3097684974       -2.6144864225
 H        -10.7730974235        2.0685952646       -2.0519872376
 H         -9.1712569258        3.2190814766       -0.5698309945
 H         -7.2508441905        1.9883956654        0.3665406880
 H         -0.6475837356       -1.6199698551       -0.2456443949
 H          1.7788616359       -1.3086967137       -0.1587620932
 H          3.3322825847       -0.5843562503       -1.6954263069
 H          5.3337864296       -1.9092642846       -1.9873735325
