  68
 
 C         -3.5664483062       -1.7356638553       -2.1865063415
 C         -3.7211917789       -1.6560843428       -0.6648845752
 C         -3.1157559415       -2.8955716235        0.0010261456
 C         -5.1702934663       -1.4741403190       -0.2712236507
 C         -6.2394082865       -2.3121927066       -0.5001177450
 C         -7.4957718994       -1.9365312972       -0.0422067797
 C         -7.6754974333       -0.7394867992        0.6329600944
 C         -6.6061806044        0.1098081851        0.8667744915
 C         -5.3516322225       -0.2620521422        0.4121297803
 C         -4.0674449604        0.4088314881        0.5079598321
 C         -3.7061656440        1.6177411541        1.0811923022
 C         -2.3831365068        2.0142168601        1.0346785028
 C         -1.4168002661        1.2213136829        0.4121803266
 N         -0.0793830242        1.6312883521        0.3778602710
 C          0.2396450281        2.9810211113        0.2037666226
 C         -0.5349874303        3.7900376874       -0.6280227346
 C         -0.2169154356        5.1235065935       -0.7954889458
 C          0.8787826891        5.6713473450       -0.1486235841
 C          1.6540749865        4.8717194927        0.6753056945
 C          1.3389358074        3.5395072862        0.8569332280
 C          0.9396138200        0.6841816139        0.5260342714
 C          0.7780336558       -0.3896045705        1.4048181443
 C          1.7730585861       -1.3348281396        1.5644278054
 C          2.9501794408       -1.2011451708        0.8452361594
 C          3.1173955477       -0.1236934173       -0.0379430452
 C          2.1243994737        0.8106843160       -0.2068814175
 C          4.4720285371       -0.1846331155       -0.7068098738
 C          5.3084853964        1.0507009360       -0.3598496223
 C          4.3349815081       -0.3297577220       -2.2253112122
 C          5.0576134192       -1.4349953420       -0.0887073798
 C          6.2890994236       -2.0120964599       -0.3080460322
 C          6.6175716801       -3.1730641581        0.3801631351
 C          5.7243400833       -3.7452079912        1.2722737352
 C          4.4833257131       -3.1723319093        1.4981410136
 C          4.1528341301       -2.0139660509        0.8140954420
 C         -1.7855587505        0.0058043295       -0.1737530853
 C         -3.0991266474       -0.3918850480       -0.1166414596
 H         -2.5146721704       -1.7969902840       -2.4563849111
 H         -3.9951277985       -0.8516822134       -2.6541035933
 H         -4.0772020819       -2.6146717013       -2.5726806188
 H         -3.6100537739       -3.7960532380       -0.3559663241
 H         -2.0544607523       -2.9659104906       -0.2267560680
 H         -3.2366440235       -2.8380595419        1.0808143708
 H         -6.1109001045       -3.2477777338       -1.0253383434
 H         -8.3425947744       -2.5849483948       -0.2141842566
 H         -8.6615455071       -0.4667016901        0.9805157292
 H         -6.7488879113        1.0420523727        1.3930835945
 H         -4.4410787921        2.2398146621        1.5697869562
 H         -2.0819176254        2.9465228692        1.4897581426
 H         -1.3838016412        3.3634815682       -1.1422613125
 H         -0.8248690924        5.7376265678       -1.4436634433
 H          1.1262289878        6.7131513892       -0.2849769656
 H          2.5070020013        5.2909575975        1.1888797200
 H          1.9390042463        2.9219318690        1.5091921899
 H         -0.1398976626       -0.4709047013        1.9685025818
 H          1.6342966994       -2.1567346969        2.2508049168
 H          2.2413086744        1.6367483541       -0.8932280787
 H          4.8309756688        1.9496520511       -0.7433621629
 H          5.4099368818        1.1440036291        0.7194537835
 H          6.3014281242        0.9695991772       -0.7958696313
 H          3.8487527442        0.5473151466       -2.6462622568
 H          3.7391045429       -1.2077032572       -2.4662131817
 H          5.3148038689       -0.4390153903       -2.6842494147
 H          6.9934431562       -1.5747822330       -1.0010962812
 H          7.5805612454       -3.6352271620        0.2184316184
 H          6.0003852873       -4.6483961618        1.7972084592
 H          3.7890508199       -3.6199582570        2.1939057359
 H         -1.0353335589       -0.6001143591       -0.6606764681
