  59
 
 C          0.3938769899        2.8997689007       -2.2904184031
 C          0.1118311406        1.5556256704       -2.4705033894
 C          0.6686992331        0.6060035902       -1.6339704393
 C          1.5142874409        0.9968533951       -0.6044575942
 C          1.8280214509        2.3436150332       -0.4578875185
 C          1.2627618340        3.2955799928       -1.2914774419
 S          2.9774468202        2.8489126888        0.7956702590
 C          4.0204453452        1.4173462854        0.7606841499
 C          5.3814414903        1.5474262457        0.9925433350
 C          6.1960318068        0.4306424561        0.9628526312
 C          5.6575233149       -0.8126803087        0.6714903313
 C          4.3018944521       -0.9445724348        0.4316000053
 C          3.4647897012        0.1638553972        0.5056511239
 N          2.0816611681        0.0481093697        0.2807161637
 C          1.2624703075       -0.7966183321        0.9814654290
 C          1.7451999421       -1.6038564345        2.0506334294
 C          0.8588724862       -2.3722191490        2.7429318499
 C         -0.5188191282       -2.3430343666        2.4173132676
 C         -1.5135093417       -3.0734326215        3.0904669616
 C         -2.8301856921       -2.9392991152        2.7366552969
 C         -3.2105632889       -2.0695392997        1.7034274316
 C         -2.2652878117       -1.3506349031        1.0207284580
 N         -2.6253914771       -0.4635454192       -0.0349324698
 C         -2.5793503733       -0.9973707902       -1.3227279494
 C         -2.2227523589       -2.3321570906       -1.5232254189
 C         -2.1888650418       -2.8898070527       -2.7886955375
 C         -2.4956248339       -2.1265647826       -3.8995999105
 C         -2.8461727445       -0.7997594886       -3.7240434129
 C         -2.9005447981       -0.2460539215       -2.4560393722
 S         -3.4284497540        1.4385976074       -2.3301110514
 C         -2.7026769372        1.8654306846       -0.7735499738
 C         -2.4643660664        3.2084966967       -0.5402934870
 C         -1.9941583223        3.6358362295        0.6876288409
 C         -1.7932401108        2.7025341672        1.6870104206
 C         -2.0172292182        1.3590688401        1.4491170863
 C         -2.4420314739        0.9004640389        0.2018257699
 C         -0.8930283011       -1.4828468680        1.3557711281
 N         -0.0097086742       -0.7572377966        0.6588637706
 H         -0.0535152350        3.6399341707       -2.9354161677
 H         -0.5457958391        1.2419978157       -3.2661830123
 H          0.4398003578       -0.4394040801       -1.7630656565
 H          1.5076304903        4.3362097384       -1.1449003647
 H          5.7865197549        2.5250914908        1.2022153867
 H          7.2530106300        0.5329727616        1.1538154700
 H          6.2946025026       -1.6826434547        0.6252641950
 H          3.8777682129       -1.9077178896        0.1889439098
 H          2.7884028761       -1.5791709198        2.3222439898
 H          1.1926764419       -2.9931488505        3.5629377699
 H         -1.2224641513       -3.7348850474        3.8940543556
 H         -3.5923048243       -3.4984641107        3.2579792789
 H         -4.2526785524       -1.9641118010        1.4411388724
 H         -1.9719763239       -2.9469026120       -0.6729476559
 H         -1.9161333068       -3.9287415934       -2.8994390204
 H         -2.4680347154       -2.5540780788       -4.8896674569
 H         -3.1004904154       -0.1787042014       -4.5698059806
 H         -2.6709943919        3.9145352797       -1.3301619253
 H         -1.8088154300        4.6838165172        0.8635149849
 H         -1.4579291290        3.0151928037        2.6645586420
 H         -1.8645781273        0.6552819471        2.2518016153
