  145
 
 C         -0.0449541414        8.2008947758        0.0809662766
 C         -0.0428714682        6.7041831882        0.0697091623
 C         -1.0132870494        5.9715042691        0.7441367647
 C         -1.0072998231        4.5911882000        0.7284919721
 C         -0.0220677190        3.8978895440        0.0230024111
 N         -0.0133065589        2.5041858766       -0.0038845778
 C          1.1902633122        1.7973652119       -0.0732760606
 C          1.2786041304        0.6456718398       -0.8616004016
 C          2.4520338746       -0.0725446439       -0.9149273465
 C          3.5717022804        0.3265756581       -0.1854538625
 C          4.8051475773       -0.5436708186       -0.1446791299
 C          5.1453665208       -1.1626843365       -1.4809784906
 C          5.0382478082       -0.4341482769       -2.6651132690
 C          5.4608583966       -1.0058531364       -3.8518152438
 C          5.9763124439       -2.2932159371       -3.8182080576
 N          6.0846452695       -2.9985404325       -2.7012574483
 C          5.6866009966       -2.4424789093       -1.5711290600
 C          4.5809151342       -1.5551434370        0.9655745445
 C          3.5683443939       -2.4523126251        1.1087153638
 C          3.5195670159       -3.3130974708        2.2269741055
 C          2.3882319898       -4.3148683357        2.3334395515
 C          1.0474310343       -3.5599954714        2.3505777084
 C          2.4661410125       -5.1737855468        3.5993206191
 C          2.4276678011       -5.2551873789        1.1160358703
 C          4.5415020218       -3.1949709444        3.1982542788
 C          5.5611230158       -2.2922177503        3.0889834562
 C          5.6172431156       -1.4301410947        1.9605908923
 C          6.5046018921       -0.4277064856        1.5794970916
 C          7.6933184497        0.0830348625        2.1668730215
 C          8.3504145774        1.1111049562        1.5589746874
 C          7.9053903377        1.7019566447        0.3467223421
 C          8.6973044986        2.8443687503       -0.2540997385
 C          8.0850064830        3.3699260358       -1.5565074695
 C          8.7513991012        4.0089346716        0.7502558394
 C         10.1272550502        2.3658267376       -0.5594137371
 C          6.7382952454        1.1864456661       -0.2474826393
 C          6.0553498863        0.1646412544        0.3429037700
 C          3.4790602250        1.4751210224        0.5975942306
 C          2.3126774718        2.2081854140        0.6491371125
 C         -1.2089459005        1.7804450365        0.0447967441
 C         -1.2796665539        0.6007640444        0.7891232763
 C         -2.4451470204       -0.1338660730        0.8204749424
 C         -3.5735731335        0.2812128049        0.1166044946
 C         -4.8068530717       -0.5921306209        0.0831825139
 C         -5.1186233631       -1.2094261523        1.4284481758
 C         -4.9619481280       -0.4819069009        2.6071109433
 C         -5.3309615923       -1.0584322147        3.8115583994
 C         -5.8470686911       -2.3438012931        3.7968867557
 N         -6.0060976938       -3.0464768431        2.6844466960
 C         -5.6547148860       -2.4876771620        1.5377293026
 C         -4.6189051451       -1.6197315128       -1.0209288243
 C         -3.6118783070       -2.5438624456       -1.1625325633
 C         -3.5957131714       -3.4026075809       -2.2654304312
 C         -2.4647687210       -4.4129350989       -2.3904917631
 C         -2.5785429906       -5.2807539993       -3.6473894555
 C         -2.4831139195       -5.3408039098       -1.1660815233
 C         -1.1271316157       -3.6592645026       -2.4499734814
 C         -4.6185327960       -3.2896511211       -3.2032367068
 C         -5.6346838955       -2.3558480704       -3.0736618273
 C         -5.6375195577       -1.5087650677       -1.9788211496
 C         -6.5363357039       -0.4432623568       -1.5799103050
 C         -7.6892571309        0.0597040782       -2.1575416354
 C         -8.3487920043        1.1131571563       -1.5440676492
 C         -7.8887503918        1.6830777871       -0.3598144529
 C         -8.5921607666        2.8436367824        0.3282581482
 C         -9.8579627956        3.2927697532       -0.4079462128
 C         -8.9936177122        2.4159626332        1.7482981531
 C         -7.6299110218        4.0395148025        0.3977309117
 C         -6.7262840602        1.1631127780        0.2163026883
 C         -6.0614548489        0.1225809782       -0.3872578656
 C         -3.5003261955        1.4587825479       -0.6202816236
 C         -2.3393415508        2.2045668414       -0.6543681692
 C          0.9555764476        4.6285251931       -0.6580966483
 C          0.9408773947        6.0064886421       -0.6278818765
 H         -0.8545230373        8.5862616587        0.6952003225
 H          0.8999244794        8.5792160708        0.4694897383
 H         -0.1626589641        8.5858934893       -0.9317692879
 H         -1.7827968477        6.4885015555        1.2990048818
 H         -1.7592987519        4.0399547688        1.2732292342
 H          0.4212996958        0.3312158392       -1.4387705532
 H          2.5080449561       -0.9513316100       -1.5411469463
 H          4.6199272385        0.5626749744       -2.6533666159
 H          5.3899615675       -0.4671830750       -4.7848072638
 H          6.3177831120       -2.7890459222       -4.7177069454
 H          5.8016474791       -3.0547853060       -0.6850284382
 H          2.8021798550       -2.5158511814        0.3503862604
 H          0.2237724933       -4.2645446238        2.4479225714
 H          1.0153214069       -2.8705342241        3.1923272724
 H          0.9057278506       -2.9901831315        1.4365950613
 H          2.4095824503       -4.5583597351        4.4946061599
 H          1.6294357258       -5.8697245205        3.6167576458
 H          3.3857287765       -5.7542599598        3.6227934426
 H          3.3736483207       -5.7926315052        1.0868782828
 H          2.3226065705       -4.7042324110        0.1853074420
 H          1.6186914006       -5.9804471902        1.1778684123
 H          4.5208546303       -3.8361416464        4.0651410203
 H          6.3184363666       -2.2179262576        3.8556203028
 H          8.0643173095       -0.3481213489        3.0852504359
 H          9.2510513327        1.4897308583        2.0199394304
 H          7.0788054714        3.7487743529       -1.3906244709
 H          8.0531409789        2.5912415199       -2.3157853920
 H          8.6937543604        4.1871454229       -1.9387573885
 H          9.2308267904        3.7103156678        1.6784107757
 H          9.3132749368        4.8396084757        0.3279504159
 H          7.7449269606        4.3525762881        0.9813953560
 H         10.6370523482        2.0370124061        0.3420023109
 H         10.7053697111        3.1742163202       -1.0027915403
 H         10.1024408063        1.5327950658       -1.2596733760
 H          6.3715053976        1.5984062960       -1.1738330504
 H          4.3341924042        1.7884682282        1.1784869215
 H          2.2533285532        3.0915397751        1.2678618355
 H         -0.4152635426        0.2731524184        1.3477064618
 H         -2.4836477148       -1.0368210462        1.4123394415
 H         -4.5479371498        0.5161622519        2.5814626502
 H         -5.2202784534       -0.5207550572        4.7411027416
 H         -6.1492682354       -2.8416736423        4.7093129701
 H         -5.8091107249       -3.1010113882        0.6588427325
 H         -2.8363407848       -2.6033217550       -0.4145130124
 H         -2.5419122145       -4.6725735274       -4.5485677122
 H         -3.5002358829       -5.8582603123       -3.6427885281
 H         -1.7450482350       -5.9798426618       -3.6805180866
 H         -2.3460920109       -4.7842710801       -0.2428995308
 H         -1.6847364516       -6.0762593947       -1.2422517327
 H         -3.4337564580       -5.8675803353       -1.1066103923
 H         -1.1145353653       -2.9809839696       -3.3013612227
 H         -0.9613379983       -3.0767489407       -1.5480055969
 H         -0.3051359223       -4.3641721688       -2.5578169497
 H         -4.6368840593       -3.9373946975       -4.0646206710
 H         -6.4110951177       -2.2923208110       -3.8222200653
 H         -8.0748987146       -0.3604888856       -3.0750642162
 H         -9.2439839471        1.4880317457       -2.0129632609
 H        -10.3172890397        4.1179709074        0.1329822985
 H         -9.6260128488        3.6385099272       -1.4128794565
 H        -10.5842590691        2.4851059458       -0.4663139664
 H         -9.6502363824        1.5486539486        1.7087608868
 H         -9.5210830849        3.2258706245        2.2482146959
 H         -8.1252076704        2.1551906968        2.3473175134
 H         -7.3278944322        4.3380046942       -0.6044892644
 H         -8.1187965218        4.8851312279        0.8771462873
 H         -6.7354754581        3.7966253862        0.9650594442
 H         -6.3401261006        1.5770770032        1.1353791966
 H         -4.3603376179        1.7908021486       -1.1822917224
 H         -2.2949924247        3.1106978786       -1.2402009742
 H          1.7155016141        4.1051158944       -1.2191490783
 H          1.7009825142        6.5562644529       -1.1639906240
