108
 xtb: 6.7.1 (edcfbbe)
C           -2.15983586224247        4.44533010052693        3.35784860531383
C           -0.77142045497000        4.49819341616380        2.69599035586827
C            0.27106710950184        5.14892642725723        3.61874915223338
C           -0.86887072426154        5.22693101292183        1.37595205250247
C           -1.10759936798160        6.59483305666125        1.34439169699855
C           -1.21101018357512        7.26856919029595        0.14270145981025
C           -1.08808819048580        6.58360640217855       -1.05057469821579
C           -0.86144746752852        5.21327168370544       -1.06518981519148
C           -0.74416997137949        4.47471397613663       -2.37806236748354
C            0.45903246899422        4.98481346538410       -3.17496566772098
C           -2.04165593202730        4.59958308865858       -3.18085559354375
C           -0.75363489507451        4.55700901838267        0.15923709455743
N           -0.51752985961390        3.13525026160483        0.16729971276607
C           -1.64124680517223        2.32395729074043        0.20856732023354
O           -2.75456228230993        2.81590422544596        0.23797816138022
C           -1.38918330221075        0.87735571972769        0.23023383372572
C           -2.45225004098155        0.00637025202704        0.29737499183660
C           -2.25832896151579       -1.39432022312743        0.34289636961399
N           -3.33312870484534       -2.24308223547249        0.42243546801691
C           -4.67962141908585       -1.81410606578469        0.39129553477187
C           -5.16545302767128       -0.90248856798616        1.32024842771608
C           -6.49849652564652       -0.53589950995257        1.29297934363543
C           -7.34709079434805       -1.10087165275532        0.35767135260397
C           -6.87100644296966       -2.04572675272470       -0.53635276308524
C           -5.53578477816757       -2.41949378310785       -0.53413212903662
C           -4.93236397584680       -3.45796077508993       -1.46561578450890
C           -5.99637310653581       -4.28311827225887       -2.18974616994728
C           -4.07694664914040       -2.74183153225958       -2.53124130295455
C           -4.02815974047231       -4.31371838142607       -0.59421670897568
C           -3.96361149605136       -5.69794295103492       -0.65086094597585
C           -3.12327108330447       -6.40607932668730        0.19230301656780
C           -2.35420514204136       -5.74055746557091        1.13062627258449
C           -2.41137268840011       -4.36130769948167        1.21143044712785
C           -3.21934874201890       -3.65007303171558        0.33311925023257
C           -0.95533704995632       -1.87035158642229        0.22635335257237
C            0.14543682656052       -1.00459534796629        0.15783678925279
C            1.47122773178776       -1.47988474302236        0.06374724662510
C            2.53547273429333       -0.60785963349197        0.02706071817491
N            3.86309705768147       -1.10032005710162       -0.04335143123852
C            4.42743629572806       -1.69856902804412        1.07711959012167
C            3.69090696072748       -1.79465476358278        2.26169281812290
C            4.21965505931598       -2.40021464167214        3.38255063347253
C            5.50197262017709       -2.91728316192266        3.34560638706117
C            6.24331297741776       -2.79725291370222        2.18483917444073
C            5.73717583890951       -2.18885188876221        1.04353784712646
C            6.62141643402237       -2.05883633444625       -0.18237781089943
C            7.86665604991249       -1.23519612210935        0.19701089337376
C            7.03508576706052       -3.46739896338283       -0.64871507141220
C            5.90529231122786       -1.36286058182064       -1.32435765955042
C            6.57345019020433       -1.15977837129952       -2.52462860026246
C            5.96802406671472       -0.55533830385284       -3.61084864327906
C            4.64779260972349       -0.15530261265337       -3.51097483699878
C            3.95971454650716       -0.34785284688841       -2.33115095196648
C            4.57951696680989       -0.92914602984300       -1.22068717912021
C            2.31786574681450        0.77962924593444        0.06068744787046
C            1.03287163932321        1.27707513350546        0.12645436513863
C           -0.06518490697268        0.39800224971835        0.18113219800519
C            0.80674365325740        2.72802457201310        0.13250836543048
O            1.70557980023103        3.55050894115040        0.09618688694144
H           -2.89762717647090        4.10034419380500        2.77390365134473
H           -2.07898327632486        3.96127789009829        4.33722399224770
H           -2.41581449788729        5.55504424756870        3.65223167362761
H           -0.52132380795924        3.45223860182227        2.50949461630052
H            1.27869345742539        5.08661148759354        3.02603069356955
H            0.10631831401847        6.12034458793894        3.84979661623670
H            0.44883682284188        4.50670452388824        4.47620110281384
H           -1.20163500102918        7.14249735456839        2.26787803700620
H           -1.37686315618413        8.33583376582638        0.13275994644535
H           -1.16807588820450        7.11767293440948       -1.98557419915324
H           -0.58650898938536        3.40691200909756       -2.17444434878885
H            0.57045934532491        4.39676980893760       -4.08780401489592
H            0.32709482097590        6.02413358374582       -3.44729344932532
H            1.36178489692092        4.88414003745093       -2.58316052732176
H           -2.88618913677947        4.23730810614815       -2.58645538496540
H           -2.23592510610096        5.63099570051842       -3.45373134165177
H           -1.98286445115623        4.00336759310441       -4.08901043022182
H           -3.44833076191615        0.42397375799619        0.27908932368687
H           -4.50580677529149       -0.49809856362539        2.06617185960855
H           -6.87382939164711        0.17553433253527        2.00522732648912
H           -8.39023515109807       -0.82382592205954        0.32896622650667
H           -7.56001957654236       -2.49365965475692       -1.24125354108468
H           -5.52341568960594       -5.01068925831090       -2.85332591788288
H           -6.61480272267962       -3.64297481270435       -2.81075725754503
H           -6.63088060805007       -4.81677928271313       -1.48396330429719
H           -3.29633691607571       -2.13919876049309       -2.08724288074987
H           -3.60950138757845       -3.48138308124209       -3.18600534515381
H           -4.71009283104922       -2.09759829642868       -3.13750030738267
H           -4.56876783444559       -6.24728075298102       -1.35855116141824
H           -3.08014294596145       -7.48658762292584        0.12220772717364
H           -1.71909381664056       -6.29466827314033        1.80581616835995
H           -1.84616287017194       -3.83722076253324        1.96226233987313
H           -0.76682045070620       -2.93140283316922        0.16315908940026
H            1.65057112934896       -2.54339617137882        0.03506157158719
H            2.69396862920339       -1.38138338906874        2.31110826563738
H            3.62800522669265       -2.46317668035393        4.28652290675224
H            5.92603028251251       -3.39902153520717        4.21471110662719
H            7.24834202448549       -3.18742421061700        2.17456612096511
H            8.53273613518131       -1.12524448243694       -0.65191521746707
H            7.56637730805241       -0.23838855602088        0.52756456466884
H            8.41545566655384       -1.70921549845555        1.00476062991384
H            7.67628151056370       -3.40860864542800       -1.52204406447458
H            7.56891780736699       -3.99075235130996        0.13620564923495
H            6.14845463022963       -4.04250332854471       -0.90922137843376
H            7.59575484496031       -1.47832181292986       -2.62027952355363
H            6.51540901474297       -0.40150615025927       -4.52463565639709
H            4.14442489898060        0.31181780885623       -4.34597499558592
H            2.92393546390245       -0.03699745191276       -2.26456045818575
H            3.14792550331574        1.46750052137454        0.04212995472403
