  72
 
 C          9.1754837562       -3.4662323117       -0.8716453714
 C          7.7969994248       -3.4946505589       -0.9229258461
 C          7.0608454177       -2.3538977018       -0.6399526836
 C          7.6928145515       -1.1675182530       -0.2897728791
 C          9.0938793950       -1.1407984959       -0.2734224084
 C          9.8228437088       -2.2810456460       -0.5542263668
 O          9.8060888220        0.0004452598        0.0003730383
 C          9.0934840768        1.1414996951        0.2739234547
 C          9.8220445721        2.2819845549        0.5548146224
 C          9.1742620297        3.4669968070        0.8720268247
 C          7.7957596647        3.4950006314        0.9230246957
 C          7.0600111525        2.3540071432        0.6399650957
 C          7.6924102912        1.1678003557        0.2899680328
 N          6.9825166812        0.0000258756        0.0000680493
 C          5.5721886083       -0.0001411396       -0.0000417804
 C          4.8699203241       -0.7834298002        0.9117803314
 C          3.4901882636       -0.7829019443        0.9097071300
 C          2.7792874294       -0.0005327734       -0.0003151302
 C          1.3184179908       -0.0006089974       -0.0003862653
 C          0.5602735927        0.0756148867       -1.1730619400
 N         -0.7541589296        0.0829984750       -1.1759970354
 C         -1.3793122574       -0.0010006008       -0.0003576249
 C         -2.8385860733       -0.0007344881       -0.0002816647
 C         -3.5434481329        0.0882732216       -1.2012502543
 C         -4.9217986107        0.0885415409       -1.2017495153
 C         -5.6226127722       -0.0001446139       -0.0000371373
 N         -7.0320629984        0.0001616052        0.0001601733
 C         -7.7427419552        1.1043765443       -0.4773030633
 C         -7.1108592237        2.2621027183       -0.9138881123
 C         -7.8471224698        3.3414866752       -1.3782564091
 C         -9.2257611217        3.2875033504       -1.4034759250
 C         -9.8730264723        2.1516718846       -0.9398789248
 C         -9.1438255958        1.0737704844       -0.4737116679
 O         -9.8565533779        0.0006464333        0.0003282254
 C         -9.1441342956       -1.0727523866        0.4742108428
 C         -9.8736523500       -2.1504444218        0.9403668360
 C         -9.2267253602       -3.2865263393        1.4038260235
 C         -7.8481097467       -3.3409961652        1.3784026970
 C         -7.1115293741       -2.2618375981        0.9140048685
 C         -7.7430618683       -1.1038359550        0.4776482953
 C         -4.9216186491       -0.0889694418        1.2015557777
 C         -3.5432779633       -0.0894777153        1.2008008417
 N         -0.7541307585       -0.0846681410        1.1752674711
 C          0.5602914194       -0.0768189199        1.1723040416
 C          3.4901452105        0.7819746801       -0.9102394839
 C          4.8698752176        0.7828997665       -0.9120344727
 H          9.7527406710       -4.3516211809       -1.0861685422
 H          7.2785142072       -4.4035518073       -1.1869783181
 H          5.9842227873       -2.3863893481       -0.7003293598
 H         10.8988957678       -2.2188239727       -0.5242531785
 H         10.8981209655        2.2200844421        0.5250801529
 H          9.7512063721        4.3525739388        1.0866147607
 H          7.2769455372        4.4037617479        1.1869161744
 H          5.9833661423        2.3861764196        0.7001208799
 H          5.4141969092       -1.3891523923        1.6212375064
 H          2.9561947572       -1.4062794808        1.6113811319
 H          1.0333216893        0.1135772992       -2.1471148966
 H         -2.9897579425        0.1486592932       -2.1247426884
 H         -5.4699187148        0.1493476854       -2.1305548958
 H         -6.0345000024        2.3250985503       -0.8832807005
 H         -7.3287514035        4.2257176843       -1.7159606744
 H         -9.8030239580        4.1224012464       -1.7681180372
 H        -10.9490996611        2.0839438488       -0.9259085401
 H        -10.9497034639       -2.0823334171        0.9265493932
 H         -9.8042347344       -4.1212647937        1.7684402439
 H         -7.3300096861       -4.2254468607        1.7159459564
 H         -6.0351956904       -2.3252175426        0.8832286369
 H         -5.4695990680       -0.1495782521        2.1304611935
 H         -2.9894516103       -0.1500996185        2.1241967536
 H          1.0333675662       -0.1153204853        2.1463780391
 H          2.9561159084        1.4052038325       -1.6120200245
 H          5.4141154111        1.3887199838       -1.6214343732
