  71
 
 C         -4.6068938445       -2.6874695059        1.1150517809
 C         -3.6029216335       -3.5910562877        0.8427936958
 C         -2.3237589924       -3.1450120532        0.4509374593
 C         -1.1971587085       -4.0088846076        0.2018135298
 C         -1.2347874224       -5.4248252896        0.1934039948
 C         -0.0524811635       -6.1126821181       -0.0263244838
 C          1.1395360846       -5.4417820915       -0.2374639071
 C          1.1262625094       -4.0242738251       -0.2304109084
 C          2.2676141867       -3.1776956223       -0.4625909864
 C          3.5496028638       -3.6437370878       -0.8242453284
 C          4.5745827420       -2.7569248619       -1.0703263824
 C          4.3827532857       -1.3833071831       -0.9815861804
 C          3.1180559443       -0.9028249962       -0.6093142227
 N          2.8715355610        0.4769524993       -0.5338489279
 C          3.6593379308        1.4126733720        0.1009717387
 C          4.8072966577        1.2311722460        0.8618520375
 C          5.3967493549        2.3513547020        1.4192583668
 C          4.8572324523        3.6223624324        1.2362232644
 C          3.6994747655        3.8066063096        0.4999659946
 C          3.0896378848        2.6981887495       -0.0672075321
 C          1.8935651497        2.5136862421       -0.8450079235
 C          0.9345890954        3.3832045168       -1.3412156461
 C         -0.1156760407        2.8629920109       -2.0756747217
 C         -0.2004215206        1.4974984958       -2.3355069250
 C          0.7518216634        0.6131283224       -1.8648370881
 C          1.7934105472        1.1247571368       -1.1003039252
 C          2.0946353602       -1.7863341784       -0.3426353319
 N         -0.0315860625       -3.4041590322       -0.0120764646
 C         -2.1317494431       -1.7575269436        0.3238633878
 C         -3.1326574854       -0.8567303180        0.6184924355
 N         -2.8633928818        0.5183758472        0.5382619774
 C         -3.6544851501        1.4716841653       -0.0662026282
 C         -4.8329375435        1.3160575235       -0.7850086049
 C         -5.4204635209        2.4500232305       -1.3160192539
 C         -4.8492827177        3.7093213241       -1.1491868509
 C         -3.6616715416        3.8676217422       -0.4557735453
 C         -3.0538765721        2.7451471073        0.0854350364
 C         -1.8360134720        2.5348758969        0.8217025381
 C         -0.8466198959        3.3849147585        1.2912081413
 C          0.2154100231        2.8432489385        1.9925500963
 C          0.2832643785        1.4754726823        2.2447219517
 C         -0.6988260957        0.6103064093        1.8003604091
 C         -1.7543947646        1.1435230920        1.0703206636
 C         -4.3941536833       -1.3172686288        1.0240567021
 H         -5.5777197433       -3.0480799466        1.4244582951
 H         -3.7990886868       -4.6470597171        0.9449051259
 H         -2.1627873128       -5.9467089584        0.3560091096
 H         -0.0612818861       -7.1948492312       -0.0324446313
 H          2.0590534273       -5.9767937094       -0.4058851050
 H          3.7317551595       -4.7027597872       -0.9209351847
 H          5.5468968090       -3.1333117864       -1.3554740884
 H          5.1764432552       -0.6960042176       -1.2276591384
 H          5.2196188872        0.2471366057        1.0238569791
 H          6.2915916899        2.2367764808        2.0129991324
 H          5.3472598699        4.4735002894        1.6854673983
 H          3.2747641130        4.7908825670        0.3734452717
 H          1.0108906883        4.4439083551       -1.1586611010
 H         -0.8786960347        3.5207980399       -2.4634343344
 H         -1.0242570885        1.1213258302       -2.9241284471
 H          0.6912220430       -0.4392868666       -2.0960801225
 H          1.1357739367       -1.4164582007       -0.0166933680
 H         -1.1763671018       -1.4042171173       -0.0292930263
 H         -5.2704542557        0.3411999151       -0.9357448939
 H         -6.3390318522        2.3555511424       -1.8761265982
 H         -5.3385058954        4.5718207252       -1.5771043007
 H         -3.2132242987        4.8428263353       -0.3416745365
 H         -0.9092241164        4.4474971356        1.1145128788
 H          1.0012821535        3.4856064709        2.3599087942
 H          1.1174438313        1.0821897757        2.8069751446
 H         -0.6501758586       -0.4435890286        2.0275622153
 H         -5.1695235644       -0.6177657303        1.2930668051
