  90
 
 C          8.3347540371        3.3917826767       -0.3429194421
 C          8.2255332826        1.9880559309        0.2848351015
 C          9.5581227106        1.6021182997        0.9572091840
 C          7.9246140715        0.9919163026       -0.8142034196
 C          8.8153281823        0.8454996971       -1.8692467174
 C          8.5744744041       -0.0243970442       -2.9168628790
 C          7.3993817838       -0.7607417729       -2.9349250946
 C          6.4983513340       -0.6381741074       -1.9016390061
 C          6.7543005365        0.2157799717       -0.8179217868
 N          5.8424429070        0.2972951961        0.2157448153
 C          4.6857225129       -0.5271924982        0.1844336260
 C          4.7944928233       -1.9037435483        0.3953447625
 C          3.6798991343       -2.7051757865        0.3643287097
 C          2.3980497394       -2.1680432214        0.1171135158
 C          1.2069210074       -2.9600130506        0.0767932333
 C          1.1887805119       -4.3919748344        0.1044045314
 C         -0.0002561415       -5.0473201690        0.0769480897
 C         -1.2288260283       -4.3301389283        0.0198015266
 C         -2.4215124636       -5.0217654451        0.0780046178
 N         -3.3910016948       -5.6586193699        0.1544488527
 C         -1.1245664513       -2.8983953916       -0.0407132384
 C         -2.2884839918       -2.0215682656       -0.1341481657
 C         -2.2203985023       -0.7430492948        0.4343868554
 C         -3.2990657540        0.1109887469        0.3928059832
 C         -4.4776564201       -0.2893457747       -0.2338899255
 N         -5.6044400905        0.5812187931       -0.2568892427
 C         -6.6591728127        0.3322072273        0.5998225589
 C         -6.5969126817       -0.7599590989        1.4772711156
 C         -7.6375216042       -1.0380785254        2.3350368795
 C         -8.7613645705       -0.2261806071        2.3424399809
 C         -8.8182145630        0.8641856851        1.4938965384
 C         -7.7855714901        1.1694369319        0.6173393441
 C         -7.8959832897        2.3900600850       -0.2720648747
 C         -8.0341610715        3.6381335049        0.6219110649
 C         -9.1400031645        2.2390531385       -1.1696810999
 C         -6.6797289135        2.5560346035       -1.1584188581
 C         -6.6154178673        3.6239378730       -2.0435623633
 C         -5.5386699392        3.8096096226       -2.8911757602
 C         -4.4920995692        2.9003248996       -2.8737114057
 C         -4.5268658279        1.8324186879       -2.0051797164
 C         -5.6059459342        1.6529934068       -1.1277947758
 C         -4.5491681153       -1.5436463524       -0.8322799496
 C         -3.4678984313       -2.3989751432       -0.7823713036
 N          0.0393970750       -2.3023152531        0.0000262814
 C          2.3128287031       -0.7709734262       -0.0878184403
 C          3.4238100685        0.0291080251       -0.0563440069
 C          6.0248577695        1.1581887563        1.2799243803
 C          5.0921504571        1.1705783402        2.3283422171
 C          5.2332915286        2.0336796289        3.3912633839
 C          6.3164145730        2.8984829585        3.4389891053
 C          7.2570109017        2.8664177050        2.4258008473
 C          7.1425811778        2.0060394799        1.3420061970
 H          7.3910118341        3.6636124250       -0.8122255399
 H          8.5695196097        4.1347398118        0.4133961145
 H          9.1140578585        3.4165473433       -1.0987229809
 H          9.4776766573        0.6108240427        1.3997450626
 H          9.8129498092        2.3085106464        1.7416526531
 H         10.3667177136        1.5907018429        0.2324797870
 H          9.7244053913        1.4262433160       -1.8807669946
 H          9.2905481067       -0.1176522177       -3.7190010546
 H          7.1831589709       -1.4275575525       -3.7559944986
 H          5.5787892258       -1.2008815789       -1.9252872752
 H          5.7672610459       -2.3306971556        0.5957180410
 H          3.7956861159       -3.7613843698        0.5520536143
 H          2.1138257089       -4.9444169887        0.1444590800
 H         -0.0415057316       -6.1294899669        0.1002637395
 H         -1.3048246228       -0.4484978164        0.9238681654
 H         -3.2449290005        1.0882067687        0.8500328964
 H         -5.7219008989       -1.3906959033        1.4813989145
 H         -7.5696187786       -1.8876048968        2.9977806263
 H         -9.5831019860       -0.4372261234        3.0094845246
 H         -9.6949975009        1.4921586899        1.5206099875
 H         -8.9083407693        3.5590964242        1.2612554200
 H         -7.1538897851        3.7418114887        1.2536699834
 H         -8.1325833478        4.5354514292        0.0182994591
 H         -9.0406444513        1.3541433586       -1.7957550554
 H        -10.0387244528        2.1358319858       -0.5690159224
 H         -9.2581138115        3.1048027124       -1.8144641617
 H         -7.4273079078        4.3334640115       -2.0786494859
 H         -5.5197995768        4.6519784110       -3.5655937076
 H         -3.6504553896        3.0208558108       -3.5389338737
 H         -3.7164261474        1.1208064572       -2.0002426815
 H         -5.4570477048       -1.8447067693       -1.3343582294
 H         -3.5347061784       -3.3638131757       -1.2609837716
 H          1.3384586476       -0.3531238273       -0.2882849606
 H          3.3409973383        1.0928837172       -0.2285992912
 H          4.2569522138        0.4891882383        2.3009020480
 H          4.5012942579        2.0285085795        4.1847590391
 H          6.4337488598        3.5832461068        4.2649029301
 H          8.1043540947        3.5311617676        2.4882751598
