  59
 
 C          7.4819996719       -0.4079530261       -1.9756343101
 C          6.8493438304        0.8297777261       -2.0452882242
 C          5.6220240339        1.0486518985       -1.4332058810
 C          5.0476699949        0.0008559667       -0.7328137324
 C          5.6665821692       -1.2766158889       -0.6948471529
 C          6.8965224054       -1.4731103604       -1.3143067932
 C          4.7725442766       -2.1449337139        0.0066262961
 C          4.7773191195       -3.4882112709        0.3842076937
 C          3.6664558654       -3.9533767865        1.0734053055
 C          2.6151084735       -3.0918045243        1.3639467945
 N          2.5860493612       -1.8030516938        1.0166082594
 C          3.6409572807       -1.3651467231        0.3550543360
 N          3.8275818568       -0.0633841469       -0.0716528010
 C          2.9610365146        0.9921695374        0.1904102540
 C          3.4744961690        2.2620198410        0.5158265490
 C          2.6091534538        3.3145612759        0.7814395586
 C          1.2483305164        3.0956345190        0.7180135078
 S         -0.0028071157        4.2812393627        1.0059903895
 C         -1.2572240944        3.0934950475        0.7378660634
 C         -2.6175693800        3.3191650936        0.7912316402
 C         -3.4857691454        2.2628186376        0.5503040898
 C         -2.9762364251        0.9854032567        0.2666145180
 N         -3.8548464336       -0.0702930709        0.0430450519
 C         -3.6756603441       -1.3902352078        0.4374719518
 C         -2.7178945040       -1.9427350132        1.2721185408
 C         -2.7920352931       -3.3040341808        1.5367454419
 C         -3.8045214778       -4.0923609506        0.9981151187
 C         -4.7897513057       -3.5414316713        0.1976381071
 C         -4.7348752133       -2.1798517186       -0.0815904720
 C         -5.5897501695       -1.2920809358       -0.8080609548
 C         -6.7626036037       -1.4223406213       -1.5513608180
 C         -7.2818943640       -0.2678448745       -2.1195347148
 C         -6.6354536095        0.9494784788       -1.9377323764
 N         -5.5161680666        1.1019225262       -1.2281942340
 C         -5.0238196064        0.0030590919       -0.6889251104
 C         -1.6027839534        0.7640210275        0.1858151798
 C         -0.7173835550        1.8170822719        0.4241147229
 C          0.7060639913        1.8175081879        0.4088102785
 C          1.5881472728        0.7675738163        0.1492057331
 H          8.4379450695       -0.5410619744       -2.4601816102
 H          7.3155917270        1.6353783705       -2.5916720797
 H          5.1280679517        2.0027719436       -1.5264600687
 H          7.3748826448       -2.4401392305       -1.2844694818
 H          5.6089263453       -4.1350981457        0.1500124308
 H          3.6102011204       -4.9839235943        1.3890568769
 H          1.7422990753       -3.4363068557        1.9006930664
 H          4.5376728237        2.4026447876        0.6135224908
 H          2.9974096653        4.2844298896        1.0501771778
 H         -3.0031667699        4.2975281561        1.0308217666
 H         -4.5507906017        2.4105612524        0.5858772093
 H         -1.9450921199       -1.3405329855        1.7235592662
 H         -2.0526561482       -3.7548876171        2.1808594247
 H         -3.8279042755       -5.1486119893        1.2221390370
 H         -5.5893833459       -4.1488341839       -0.1978255353
 H         -7.2416080287       -2.3807648489       -1.6816202038
 H         -8.1886819916       -0.3047741288       -2.7035093582
 H         -7.0249736289        1.8596778449       -2.3717408457
 H         -1.2200695399       -0.2012383707       -0.1030989611
 H          1.2141333291       -0.2126625907       -0.0919990241
