71

C     -6.863356    0.000004   -0.995153
C     -5.857821   -0.000048    0.185913
C     -6.629612   -0.000168    1.530975
C     -5.027106    1.288634    0.109094
C     -5.676349    2.547719    0.163427
C     -4.968892    3.744921    0.091785
C     -3.592222    3.713527   -0.037533
C     -2.932868    2.484757   -0.090946
C     -3.626338    1.252560   -0.016969
N     -2.920576    0.000067   -0.065099
C     -1.490847    0.000110   -0.160851
C     -0.706147    0.000106    1.019358
C      0.706170    0.000098    1.019344
C      1.490848    0.000086   -0.160880
N      2.920578    0.000044   -0.065151
C      3.626256   -1.252503   -0.017036
C      2.932707   -2.484651   -0.091069
C      3.591982   -3.713467   -0.037700
C      4.968648   -3.744956    0.091643
C      5.676179   -2.547806    0.163361
C      5.027018   -1.288676    0.109060
C      5.857813   -0.000048    0.185961
C      6.863450   -0.000162   -0.995019
C      6.629490    0.000009    1.531090
C      5.027112    1.288628    0.108903
C      5.676365    2.547719    0.163065
C      4.968920    3.744911    0.091207
C      3.592253    3.713503   -0.038144
C      2.932890    2.484729   -0.091381
C      3.626348    1.252542   -0.017195
C      0.755993    0.000105   -1.386316
N      1.275312    0.000105   -2.626991
S     -0.000031    0.000124   -3.682326
N     -1.275356    0.000132   -2.626968
C     -0.756015    0.000119   -1.386302
C     -3.626258   -1.252484   -0.017121
C     -2.932708   -2.484627   -0.091226
C     -3.591987   -3.713446   -0.038005
C     -4.968660   -3.744948    0.091251
C     -5.676192   -2.547804    0.163050
C     -5.027025   -1.288668    0.108913
H     -7.522429    0.874893   -0.982927
H     -7.522377   -0.874933   -0.983059
H     -6.337848    0.000090   -1.958511
H     -5.936524   -0.000219    2.381753
H     -7.279379   -0.875432    1.639445
H     -7.279416    0.875052    1.639587
H     -6.758199    2.608392    0.261012
H     -5.495017    4.694601    0.132985
H     -3.025745    4.638398   -0.100632
H     -1.852634    2.514350   -0.198848
H     -1.222694    0.000098    1.980645
H      1.222735    0.000088    1.980622
H      1.852472   -2.514172   -0.198992
H      3.025450   -4.638296   -0.100849
H      5.494709   -4.694672    0.132811
H      6.758022   -2.608549    0.260980
H      6.338026   -0.000298   -1.958420
H      7.522481    0.874760   -0.982918
H      7.522517   -0.875056   -0.982698
H      5.936330    0.000097    2.381813
H      7.279222   -0.875261    1.639748
H      7.279307    0.875234    1.639626
H      6.758212    2.608398    0.260686
H      5.495053    4.694595    0.132262
H      3.025790    4.638362   -0.101411
H      1.852658    2.514311   -0.199317
H     -1.852467   -2.514139   -0.199090
H     -3.025451   -4.638268   -0.101203
H     -5.494728   -4.694667    0.132283
H     -6.758041   -2.608554    0.260598
