  53
 
 C         -5.1585418004        0.0000824897        0.7592651890
 C         -4.0346700540        0.0000612538       -0.2929567453
 C         -4.6319923195        0.0000925934       -1.7118317408
 C         -3.2045967976       -1.2575649826       -0.1165273622
 C         -3.8087990508       -2.5008348431       -0.2430841141
 C         -3.1018496839       -3.6796289476       -0.0932556339
 C         -1.7494298231       -3.6268851496        0.1906106745
 C         -1.1231895420       -2.4051593620        0.3216670679
 C         -1.8371840437       -1.2134970327        0.1713981212
 N         -1.1808712745       -0.0000246558        0.3120768347
 C          0.2061417770       -0.0000679841        0.6110956512
 C          0.6334696842       -0.0003090161        1.9368779687
 C          1.9841320946       -0.0003532230        2.2236709186
 C          2.9307293469       -0.0001756100        1.2010611109
 C          2.5022899152        0.0000539756       -0.1323338064
 C          1.1405394480        0.0001188397       -0.4152174882
 C          3.4591751717        0.0002159550       -1.2635312345
 O          3.0845059570        0.0004161640       -2.4200390011
 C          4.8927212854        0.0001148151       -0.9013094400
 C          5.8392861512        0.0002285931       -1.9229866762
 C          7.1910960844        0.0001448630       -1.6319328182
 C          7.6150187840       -0.0000500956       -0.3110264421
 C          6.6850500572       -0.0001681750        0.7124096943
 C          5.3208164501       -0.0000895416        0.4325937656
 C          4.3656448304       -0.0002302531        1.5619193379
 O          4.7363817759       -0.0004005831        2.7204309597
 C         -1.8371153891        1.2134872091        0.1714195099
 C         -1.1230652722        2.4051064357        0.3217660959
 C         -1.7492400301        3.6268701760        0.1907499392
 C         -3.1016522845        3.6796953038       -0.0931372533
 C         -3.8086630565        2.5009438297       -0.2430130463
 C         -3.2045263952        1.2576374575       -0.1165019106
 H         -4.7292435857        0.0000665343        1.7595187330
 H         -5.7869473052       -0.8801364492        0.6561467240
 H         -5.7869083055        0.8803305284        0.6561575864
 H         -5.2477193030       -0.8802614362       -1.8738204499
 H         -5.2476735567        0.8804829125       -1.8737974943
 H         -3.8319693796        0.0000815256       -2.4497371384
 H         -4.8635851626       -2.5578720191       -0.4655342719
 H         -3.6037419520       -4.6292805673       -0.1981888129
 H         -1.1781615198       -4.5352138280        0.3105706186
 H         -0.0668329069       -2.3711191856        0.5422472605
 H         -0.0999732228       -0.0004583435        2.7293353992
 H          2.3362217315       -0.0005216649        3.2446108713
 H          0.8216667019        0.0003012654       -1.4473853528
 H          5.4870414699        0.0003787020       -2.9439482521
 H          7.9150434404        0.0002321482       -2.4329815326
 H          8.6699057823       -0.0001119356       -0.0808262597
 H          6.9928565755       -0.0003196376        1.7476433246
 H         -0.0667196821        2.3710013889        0.5423888191
 H         -1.1779301123        4.5351642350        0.3107739184
 H         -3.6034958258        4.6293766825       -0.1980346589
 H         -4.8634448775        2.5580446453       -0.4654671577
