  69
 
 N        -10.5415365386       -3.0236212120       -0.0210653008
 C         -9.5204073756       -2.4985402939       -0.0172074262
 C         -8.2636828594       -1.8554317422       -0.0125970910
 C         -8.1923509826       -0.4605908020       -0.0236738333
 C         -6.9599053487        0.1609397167       -0.0186331909
 C         -5.7868915880       -0.5904887258       -0.0030691785
 C         -4.4666279680        0.0821079595        0.0023208608
 C         -3.8578193842        0.4053100791        1.2215780649
 C         -4.4726474039        0.1092602224        2.4672512668
 C         -3.8684807204        0.4292765713        3.6440195210
 C         -2.6095017130        1.0649089451        3.6489623298
 C         -1.9870932631        1.3669528195        2.4769058394
 C         -2.5826179247        1.0522205471        1.2264980888
 C         -1.9540340811        1.3582140793        0.0128954761
 C         -0.6364362624        2.0385363241        0.0181916668
 C         -0.5646478470        3.4289189543        0.0288659517
 C          0.6649324260        4.0681212698        0.0326298367
 C          1.8337463990        3.3324380319        0.0260402104
 C          1.7734793393        1.9378146973        0.0158199141
 C          2.9988439843        1.1707268084        0.0088918781
 N          4.2063254726        1.6598890239        0.0032326023
 C          5.0339810512        0.5717958326       -0.0026000977
 C          6.4556667937        0.4951327544       -0.0113224199
 C          7.2516316095        1.6451833775       -0.0152444941
 C          8.6209548151        1.5412050600       -0.0246167505
 C          9.2113590991        0.2788479550       -0.0300584729
 C          8.4387635659       -0.8594161192       -0.0261062059
 C          7.0362763971       -0.7975008420       -0.0165118866
 C          6.2025596540       -1.9886798899       -0.0122130124
 C          6.7348109038       -3.2868432869       -0.0161152136
 C          5.9267907895       -4.4006547366       -0.0118943588
 C          4.5386131444       -4.2754332126       -0.0033772155
 C          3.9743414292       -3.0242402186        0.0005985209
 C          4.7870474344       -1.8829991948       -0.0036912293
 C          4.2531921363       -0.5719022918        0.0002940324
 O          2.9533912654       -0.1882685993        0.0074688183
 C          0.5357147830        1.2964201224        0.0118944421
 C         -2.5632112749        1.0340526691       -1.2058953180
 C         -1.9489559980        1.3324569602       -2.4512414214
 C         -2.5528911699        1.0135809525       -3.6284826373
 C         -3.8110735014        0.3763876708       -3.6341809272
 C         -4.4332906908        0.0724385471       -2.4625687292
 C         -3.8383588727        0.3870007843       -1.2117673032
 C         -5.8660559000       -1.9814392352        0.0076164148
 C         -7.0920037025       -2.6155622085        0.0031714155
 H         -9.1026692768        0.1209079080       -0.0358788566
 H         -6.8989544002        1.2392079856       -0.0268036470
 H         -5.4366283807       -0.3784901118        2.4638663278
 H         -4.3477674717        0.1986134502        4.5843304661
 H         -2.1448575432        1.3098152119        4.5930017573
 H         -1.0228770923        1.8541114531        2.4787030717
 H         -1.4781676834        4.0053165928        0.0337900168
 H          0.7083923522        5.1469824822        0.0406741367
 H          2.8010346868        3.8089846791        0.0286869284
 H          6.7566420240        2.6043588799       -0.0109492973
 H          9.2374698387        2.4277212930       -0.0277646264
 H         10.2881716829        0.1923822950       -0.0374611094
 H          8.9377178715       -1.8149662890       -0.0306361591
 H          7.8028194229       -3.4314273764       -0.0224395880
 H          6.3736991447       -5.3839507490       -0.0150939227
 H          3.9145912781       -5.1566032758       -0.0000209491
 H          2.9019784515       -2.8938842421        0.0071481415
 H          0.4914214994        0.2171442957        0.0037057694
 H         -0.9855934165        1.8212660521       -2.4449545413
 H         -2.0741302848        1.2463692342       -4.5685328254
 H         -4.2754379050        0.1319622207       -4.5784985481
 H         -5.3968824309       -0.4160863902       -2.4673158894
 H         -4.9568487077       -2.5642657250        0.0197658376
 H         -7.1550237818       -3.6939979980        0.0116620689
