  53
 
 C          1.9561034115        3.8501070875       -0.2089139699
 C          2.2375192775        3.3564762774        1.0549240958
 C          2.0782834590        2.0094634176        1.3182913418
 C          1.6516872762        1.1388851633        0.3179116955
 P          1.4666650059       -0.6191440615        0.8031743729
 C          3.1797052449       -1.2224860864        0.5170381650
 C          3.3667541697       -2.6003765370        0.6152320379
 C          4.6205809093       -3.1533779817        0.4408621237
 C          5.7081911029       -2.3326911142        0.1838581498
 C          5.5329871644       -0.9614913699        0.1069389510
 C          4.2764367508       -0.4045684129        0.2766217378
 C          0.6880628403       -1.3178464375       -0.6806177734
 C          1.2228716726       -1.7796174882       -1.8403146799
 S          0.0108290554       -2.3894154270       -2.9062839542
 C         -1.2350578137       -2.0113473075       -1.7703087872
 C         -0.7336151066       -1.4549738722       -0.6385727882
 P         -1.5166550121       -0.8920458952        0.9029985989
 C         -1.6386257107        0.8913099341        0.4847237799
 C         -2.0157693561        1.3339585761       -0.7787611381
 C         -2.0826473438        2.6883470451       -1.0451815738
 C         -1.7738794838        3.6093908644       -0.0562026174
 C         -1.3997354039        3.1739073831        1.2032771893
 C         -1.3301456300        1.8185113842        1.4725388181
 C         -3.2433340245       -1.4296379323        0.5894630729
 C         -4.3300608495       -0.5637574387        0.6315673182
 C         -5.6151304740       -1.0512867865        0.4662838825
 C         -5.8300516597       -2.4055720408        0.2737270340
 C         -4.7537938801       -3.2793732319        0.2623627039
 C         -3.4705736819       -2.7957836090        0.4316849033
 C          1.3665912972        1.6410383593       -0.9448133857
 C          1.5190479166        2.9917661166       -1.2034753248
 H          2.0735091984        4.9035642414       -0.4172477347
 H          2.5752195899        4.0231212998        1.8355447437
 H          2.2875440115        1.6159941858        2.3048974053
 H          2.5143083270       -3.2350813848        0.8228771113
 H          4.7530121460       -4.2237236284        0.5095622871
 H          6.6902208706       -2.7619886274        0.0485652985
 H          6.3793472188       -0.3181389426       -0.0879586104
 H          4.1503323683        0.6667878090        0.2142282317
 H          2.2525230975       -1.8155401347       -2.1397636853
 H         -2.2530180418       -2.2440890637       -2.0164530294
 H         -2.2592748324        0.6144748629       -1.5492955787
 H         -2.3761336594        3.0282857038       -2.0283248507
 H         -1.8244129942        4.6671192767       -0.2699935640
 H         -1.1587611021        3.8899975190        1.9754363608
 H         -1.0340150892        1.4679815893        2.4519690173
 H         -4.1710341556        0.4942743069        0.7867944256
 H         -6.4526569249       -0.3685255824        0.4899612440
 H         -6.8340820721       -2.7818406528        0.1418763241
 H         -4.9173220395       -4.3391846166        0.1272223046
 H         -2.6282311440       -3.4759096920        0.4366296244
 H          1.0239413658        0.9792770396       -1.7275398277
 H          1.2957407379        3.3747759129       -2.1890194772
