110

C      2.991277   -3.711648   -0.157157
C      2.401186   -3.233442   -1.324705
C      1.665551   -2.045918   -1.301882
C      1.505142   -1.321215   -0.110128
C      0.741262   -0.046743   -0.087617
C     -0.682618   -0.061610   -0.086101
C     -1.419190   -1.350333   -0.123512
C     -1.979944   -1.821688   -1.322777
C     -2.692333   -3.022493   -1.358589
C     -2.852044   -3.772728   -0.195873
C     -2.299574   -3.322696    1.001813
C     -1.588934   -2.120702    1.037932
C     -1.405846    1.168915   -0.054169
C     -2.886685    1.151417   -0.019046
C     -3.637373    1.373375   -1.182640
C     -5.030879    1.274274   -1.163485
C     -5.706121    0.950437    0.020319
C     -7.150332    0.737053    0.021185
C     -8.075986    1.790497   -0.038660
C     -9.449009    1.549528   -0.036491
C     -9.943332    0.241852    0.021974
C     -9.041795   -0.841537    0.076087
C     -7.674909   -0.569055    0.072093
N     -7.024638   -1.784313    0.114082
C     -7.920444   -2.824928    0.160127
C     -7.696903   -4.205725    0.216968
C     -8.817390   -5.040540    0.253658
C    -10.106259   -4.512919    0.232486
C    -10.310287   -3.128976    0.173512
C     -9.196806   -2.264312    0.137458
C     -4.960301    0.772548    1.193666
C     -3.567997    0.874835    1.175337
C     -0.707907    2.407226   -0.039959
C     -1.451803    3.680706   -0.046529
C     -1.863041    4.299833    1.132365
C     -2.564938    5.498253    1.049733
C     -2.834228    6.042260   -0.200636
C     -2.385373    5.364384   -1.322394
N     -1.700154    4.201463   -1.277236
C      0.711623    2.422347   -0.030497
C      1.426533    3.710949    0.026350
C      1.855115    4.366405   -1.125588
C      2.526756    5.578079   -0.995637
C      2.749944    6.099533    0.272567
C      2.286690    5.385394    1.364874
N      1.629919    4.208491    1.274348
C      1.437297    1.199963   -0.060306
C      2.918887    1.214876   -0.062476
C      3.633346    1.421361    1.126537
C      5.026266    1.323206    1.148733
C      5.736853    1.016987   -0.018748
C      7.173955    0.768323    0.031989
C      8.127364    1.795026    0.109692
C      9.491040    1.512504    0.170634
C      9.946601    0.188796    0.161750
C      9.014935   -0.867896    0.090628
C      7.658934   -0.553922    0.025907
N      6.971378   -1.748300   -0.026741
C      7.834909   -2.816135   -0.006489
C      7.570484   -4.189743   -0.045959
C      8.663338   -5.060455   -0.004614
C      9.965949   -4.574187    0.073298
C     10.211154   -3.196799    0.110733
C      9.126117   -2.296080    0.069435
C      5.029324    0.867370   -1.219222
C      3.636644    0.968601   -1.241790
C      2.102952   -1.822426    1.058147
C      2.844091   -3.006200    1.034402
H      3.558916   -4.638189   -0.174732
H      2.507680   -3.785338   -2.254507
H      1.212486   -1.685210   -2.221997
H     -1.865431   -1.245371   -2.238657
H     -3.119128   -3.371231   -2.295666
H     -3.399548   -4.710854   -0.224267
H     -2.417419   -3.909096    1.909433
H     -1.163728   -1.783465    1.980636
H     -3.132486    1.610530   -2.117051
H     -5.586577    1.421989   -2.087063
H     -7.717750    2.816917   -0.083073
H    -10.143649    2.384787   -0.081217
H    -11.014472    0.063767    0.022124
H     -6.018729   -1.886327    0.111298
H     -6.693557   -4.618697    0.234038
H     -8.679893   -6.118507    0.299914
H    -10.964091   -5.179909    0.261567
H    -11.318748   -2.726874    0.157475
H     -5.464407    0.530650    2.127625
H     -3.011603    0.708213    2.094904
H     -1.631349    3.860362    2.097028
H     -2.894930    6.001685    1.953652
H     -3.379734    6.973716   -0.299204
H     -2.571776    5.751688   -2.320073
H      1.660876    3.944146   -2.105681
H      2.869553    6.109680   -1.878033
H      3.270961    7.040708    0.406800
H      2.436468    5.753758    2.375333
H      3.099934    1.636213    2.050637
H      5.552603    1.449236    2.092675
H      7.797875    2.831939    0.120209
H     10.209481    2.326424    0.227213
H     11.010751   -0.021348    0.211704
H      5.963636   -1.818494   -0.070612
H      6.556524   -4.569656   -0.105934
H      8.492861   -6.133886   -0.033120
H     10.801786   -5.268708    0.106082
H     11.230071   -2.827349    0.172086
H      5.561169    0.635644   -2.139627
H      3.109072    0.813716   -2.179546
H      1.997354   -1.282376    1.996455
H      3.301508   -3.376289    1.948007
