  66
 
 C          1.4892402274       -3.8899194663        2.1858739344
 C          1.0796692845       -2.7178945403        2.7993539883
 C          1.0465929480       -1.5318675903        2.0877265067
 C          1.4467467776       -1.5091465804        0.7571051653
 P          1.2402902673       -0.0661046011       -0.3251527648
 C          2.9471336965        0.1263917691       -1.0042438108
 C          4.0945631078       -0.4952726330       -0.5284124661
 C          5.3202839104       -0.2207434524       -1.1090259239
 C          5.4128324768        0.6737710709       -2.1621231219
 C          4.2722708107        1.2975317499       -2.6414332853
 C          3.0470719643        1.0205461486       -2.0664355448
 C          1.3380392969        1.3748627877        0.7931727681
 C          2.2775237692        1.4433891190        1.8135181072
 C          2.3407408073        2.5539328679        2.6344078900
 C          1.4717171921        3.6130823205        2.4268097596
 C          0.5579881502        3.5674423896        1.3902060127
 C          0.4778266127        2.4538923519        0.5580572854
 C         -0.4805298312        2.4527803429       -0.5608509809
 C         -0.5621733258        3.5654917056       -1.3939746048
 C         -1.4760477145        3.6090468979       -2.4305406232
 C         -2.3436439346        2.5485468151       -2.6372145172
 C         -2.2789326537        1.4387981317       -1.8153645310
 C         -1.3393718710        1.3724382428       -0.7949474728
 P         -1.2401380015       -0.0669874464        0.3252301573
 C         -2.9472870295        0.1249996189        1.0036831529
 C         -4.0940501442       -0.4984321652        0.5285604600
 C         -5.3201947949       -0.2237969011        1.1082214454
 C         -5.4138340709        0.6726178764        2.1596068116
 C         -4.2739268481        1.2980823562        2.6382522239
 C         -3.0482956558        1.0209653753        2.0642413869
 C         -1.4450070056       -1.5118160818       -0.7549222723
 C         -1.8347836351       -2.6969147586       -0.1357641899
 C         -1.8608269387       -3.8811869871       -0.8463768900
 C         -1.4845244455       -3.8948665810       -2.1799564912
 C         -1.0763640953       -2.7233029336       -2.7952560120
 C         -1.0447698428       -1.5361174695       -2.0854883221
 C          1.8378976411       -2.6947438028        0.1397756811
 C          1.8654289559       -3.8778690539        0.8522480336
 H          1.5075694296       -4.8145723331        2.7443373012
 H          0.7751604033       -2.7290984462        3.8363093341
 H          0.7121040306       -0.6210446745        2.5663005268
 H          4.0327751071       -1.1969889671        0.2919066037
 H          6.2101863061       -0.7071950413       -0.7350099003
 H          6.3733005281        0.8833152272       -2.6101224693
 H          4.3408534249        1.9947707161       -3.4642578143
 H          2.1458026206        1.4984441164       -2.4328157977
 H          2.9609365436        0.6180231328        1.9595279066
 H          3.0668572901        2.5955024563        3.4332451745
 H          1.5122746454        4.4805581270        3.0694887187
 H         -0.1168219489        4.3964253260        1.2283869669
 H          0.1115311600        4.3955169626       -1.2328918386
 H         -1.5178516389        4.4759566458       -3.0739040916
 H         -3.0698779838        2.5884873554       -3.4360286157
 H         -2.9612798900        0.6124177201       -1.9606197970
 H         -4.0313725532       -1.2016779677       -0.2903779543
 H         -6.2095842575       -0.7116211956        0.7347751587
 H         -6.3746471726        0.8823043179        2.6067992660
 H         -4.3433692427        1.9968389863        3.4597127688
 H         -2.1475486152        1.5003041149        2.4300270817
 H         -2.1109638021       -2.6786220920        0.9111294336
 H         -2.1653972175       -4.7964976277       -0.3594819357
 H         -1.5016612039       -4.8204252016       -2.7369554675
 H         -0.7718010755       -2.7357686597       -3.8321798963
 H         -0.7113760410       -0.6256336076       -2.5654661899
 H          2.1139721520       -2.6777778508       -0.9071672558
 H          2.1710739432       -4.7935704335        0.3667648375
