  107
 
 C          0.8928681902        5.0449383017        1.7237466305
 C          0.7550686755        4.5687168945        3.1733234943
 C         -0.3990280085        5.3471481106        3.8233075969
 C          2.0695188603        4.8808603197        3.9042779587
 C          0.4674479079        3.0777178699        3.2760591619
 C          0.3123677668        2.4959689926        4.5350421545
 C          0.0428465474        1.1489808330        4.6985356916
 C         -0.0787461511        0.3502688683        3.5736954278
 C          0.0723012136        0.9200933610        2.3044458381
 C          0.3475347977        2.2618887097        2.1525479288
 C         -0.0839212084       -0.1321913157        1.2197381198
 C          1.2184195925       -0.1956101760        0.4485701323
 C          2.2413256072       -1.0517219122        0.8375754763
 C          3.4523135105       -1.0576007902        0.1715398632
 C          3.6626025819       -0.2039393354       -0.9062109890
 N          4.8879727852       -0.2139678641       -1.5918418012
 C          5.6699607850        0.8898579173       -1.8651655406
 C          5.4782005227        2.2187937210       -1.5127081816
 C          6.4388000659        3.1342658913       -1.8977659503
 C          7.5722006858        2.7442932833       -2.6090839786
 C          7.7797188287        1.4208271678       -2.9435607942
 C          6.8271322103        0.4815391010       -2.5689123421
 C          6.7254925957       -0.9422525313       -2.7284902300
 C          7.5293768469       -1.8964572815       -3.3395594001
 C          7.1164559524       -3.2139886813       -3.3312065343
 C          5.9125763988       -3.5836303498       -2.7340682905
 C          5.0959495949       -2.6532830734       -2.1202961099
 C          5.5153994605       -1.3300609259       -2.1070512623
 C          2.6452213961        0.6610123302       -1.2975004155
 C          1.4421339192        0.6676328466       -0.6193343145
 C         -1.2805106864        0.0962267561        0.3199096152
 C         -1.3681176385       -0.5573885143       -0.9052899175
 C         -2.4810133847       -0.4116057038       -1.7099101789
 C         -3.5325116810        0.4052178895       -1.3057737203
 N         -4.6581670787        0.5702996065       -2.1288153703
 C         -4.6370659294        0.9354865731       -3.4597594674
 C         -3.5574865290        1.2492183957       -4.2740975638
 C         -3.8185134174        1.6120498877       -5.5815679242
 C         -5.1208383510        1.6717113274       -6.0743581819
 C         -6.2003219973        1.3824366532       -5.2634314509
 C         -5.9635273346        1.0154248204       -3.9446198002
 C         -6.8207630389        0.6760350083       -2.8433119960
 C         -8.1986231338        0.5690693284       -2.7009091035
 C         -8.7102712392        0.1941804891       -1.4744327275
 C         -7.8661548880       -0.0879811939       -0.4017940537
 C         -6.4928695809        0.0109138655       -0.5185764178
 C         -5.9733844706        0.4112479570       -1.7420906440
 C         -3.4545203045        1.0574467113       -0.0798059535
 C         -2.3437261372        0.8928776229        0.7260669760
 C         -0.3556061909       -1.3745079180        2.0505395675
 C         -0.5975966359       -2.6557462407        1.6151470626
 C         -0.8351428337       -3.6780985119        2.5377175089
 C         -1.0801400680       -5.0882154674        2.0209427412
 C         -2.3222301733       -5.0821321129        1.1169989326
 C          0.1472321394       -5.5431121635        1.2162664111
 C         -1.3139196736       -6.1023565800        3.1448014868
 C         -0.8311884685       -3.3586534975        3.8921339597
 C         -0.5962411123       -2.0677348631        4.3413516207
 C         -0.3560257870       -1.0667803662        3.4178564563
 H          1.0977978198        6.1137692725        1.7126018428
 H          1.7161537679        4.5407329685        1.2221811467
 H         -0.0251909101        4.8741767967        1.1656221393
 H         -1.3380856887        5.1142565308        3.3245859755
 H         -0.2214421327        6.4175536594        3.7415515186
 H         -0.5020547375        5.0996336281        4.8762851585
 H          2.0107923446        4.6194140171        4.9573180008
 H          2.2958449230        5.9425866328        3.8296308842
 H          2.8900740936        4.3208333083        3.4592730462
 H          0.4035723480        3.1081225064        5.4198670957
 H         -0.0702240364        0.7317756005        5.6886364308
 H          0.4599886782        2.6634920556        1.1595575924
 H          2.0941566826       -1.7182080088        1.6742494551
 H          4.2453850042       -1.7164361728        0.4928515295
 H          4.6122386043        2.5279055960       -0.9468541678
 H          6.3108303284        4.1752504114       -1.6381493870
 H          8.2996308987        3.4904704070       -2.8938317497
 H          8.6649976461        1.1172067002       -3.4824856789
 H          8.4557027018       -1.6085745213       -3.8142985081
 H          7.7282457706       -3.9714828697       -3.7991273171
 H          5.6097708736       -4.6205722853       -2.7547064642
 H          4.1583302348       -2.9475513089       -1.6732466724
 H          2.7982141553        1.3183234585       -2.1406568027
 H          0.6599350825        1.3408907839       -0.9380220759
 H         -0.5540759504       -1.1844803221       -1.2382324547
 H         -2.5453807626       -0.9369580049       -2.6513788305
 H         -2.5457645990        1.2199606543       -3.8984919194
 H         -2.9947474540        1.8579153801       -6.2361160165
 H         -5.2834763257        1.9570821655       -7.1035126377
 H         -7.2100889282        1.4429453848       -5.6415340668
 H         -8.8525203174        0.7727319823       -3.5359330828
 H         -9.7789951588        0.1084338513       -1.3419075459
 H         -8.2952378513       -0.3937378049        0.5415636364
 H         -5.8462554708       -0.2246073582        0.3134140995
 H         -4.2623151506        1.7016077826        0.2344700579
 H         -2.2997141735        1.4016624425        1.6774316428
 H         -0.5964202463       -2.8649722138        0.5566936064
 H         -2.1944195918       -4.4159531649        0.2680018007
 H         -2.5144014993       -6.0840690886        0.7385273402
 H         -3.1945505005       -4.7525927606        1.6785028698
 H          0.3237267814       -4.8968957846        0.3607223432
 H          1.0360147555       -5.5275989037        1.8445904768
 H          0.0004944815       -6.5577918725        0.8517289547
 H         -0.4492978362       -6.1662463631        3.8018272944
 H         -2.1912749253       -5.8414382901        3.7324963595
 H         -1.4806619097       -7.0876382154        2.7135445283
 H         -1.0138953491       -4.1231578208        4.6296446595
 H         -0.6016737773       -1.8534068835        5.4002786848
