  34
 
 C         -4.8779161294        1.2827976368       -0.0001255680
 C         -5.0557703953       -0.0924846807       -0.0000834199
 C         -3.9672377663       -0.9489003626        0.0000167031
 C         -2.6933700707       -0.4037717568        0.0000718168
 C         -2.5154596829        0.9879359532        0.0000401412
 C         -3.6038306210        1.8341363423       -0.0000593903
 C         -1.0523611769        1.3249973288        0.0001066673
 C         -0.4059426974       -0.0289329753        0.0001181221
 C         -1.3847720517       -1.0372633581        0.0001189675
 C         -1.0414232951       -2.3812773647        0.0001159214
 C          0.2993210349       -2.7401843241        0.0000732458
 C          1.2668778320       -1.7553230542        0.0000440248
 C          0.9282517019       -0.3885232711        0.0000884937
 C          2.1562311348        0.3909502537        0.0000474136
 C          2.3732036262        1.7600595388        0.0000995794
 C          3.6774154345        2.2274806696        0.0000239340
 C          4.7490812935        1.3481401561       -0.0001062389
 C          4.5387164014       -0.0239133156       -0.0001456153
 C          3.2439104777       -0.4969499351       -0.0000598233
 C          2.7591377017       -1.9169027521       -0.0000638825
 H         -5.7409883306        1.9325101752       -0.0002160071
 H         -6.0566713453       -0.4993994521       -0.0001370508
 H         -4.1104860085       -2.0193180115        0.0000443635
 H         -3.4716923026        2.9068476341       -0.0000935964
 H         -0.7735685534        1.9064144590       -0.8826267349
 H         -0.7736538705        1.9063819320        0.8828898278
 H         -1.8086516701       -3.1409221262        0.0001301223
 H          0.5830050310       -3.7829515014        0.0000499317
 H          1.5472770854        2.4542958395        0.0002025888
 H          3.8626983676        3.2919754767        0.0000665044
 H          5.7577823759        1.7346808046       -0.0001750174
 H          5.3765889507       -0.7065402362       -0.0002436590
 H          3.1070801388       -2.4629965516       -0.8807254738
 H          3.1072173797       -2.4630481710        0.8805101083
