  78
 
 C         -4.2911367986        5.4551001611       -1.4163454039
 C         -4.1717991127        4.9670311588        0.0353734921
 C         -5.5728964458        4.7260833394        0.6170896829
 C         -3.4978189546        6.0705577741        0.8550598654
 C         -3.3946281077        3.6640599955        0.0577437240
 C         -3.8854373496        2.5547234599       -0.6460989553
 C         -3.2233270956        1.3524841410       -0.6585201903
 C         -2.0199287182        1.1982634009        0.0461191229
 N         -1.3173314924       -0.0013350375        0.0088021742
 C          0.0536804684        0.0043377732        0.0058401628
 C          0.8026754275       -1.0414990095        0.6505937407
 C          2.1547292404       -1.0186741016        0.6527092149
 C          2.9060632444        0.0200245285        0.0021952955
 B          4.4350628107        0.0273986637       -0.0007980934
 O          5.2075062328        1.0092973965       -0.5931409169
 C          6.5670608884        0.5960589487       -0.5571799233
 C          7.4624288242        1.7984464969       -0.2633617812
 C          6.9083410529        0.0475634653       -1.9501734836
 C          6.5744814508       -0.5199252781        0.5483865959
 C          6.9148269301        0.0319783341        1.9402583274
 C          7.4808878396       -1.7132820152        0.2515949524
 O          5.2192673026       -0.9467623171        0.5888201983
 C          2.1424330797        1.0504086548       -0.6456184781
 C          0.7901046516        1.0584874900       -0.6411054824
 C         -2.0098426472       -1.2071906664       -0.0247979308
 C         -3.2051571835       -1.3735671689        0.6894466422
 C         -3.8614111756       -2.5829091903        0.6842006690
 C         -3.3681226166       -3.6818298520       -0.0240776739
 C         -4.0635195158       -5.0301392939       -0.0547820280
 C         -3.1152388631       -6.0964896333        0.5132783528
 C         -4.4216278136       -5.3771762998       -1.5078188580
 C         -5.3528552448       -5.0490391131        0.7708212751
 C         -2.1726709320       -3.5036959693       -0.7320503998
 C         -1.5019467785       -2.3055691806       -0.7362785211
 C         -1.5163446000        2.3024227289        0.7510329919
 C         -2.1953579536        3.4998120852        0.7526803026
 H         -3.3022574718        5.6072143831       -1.8437140335
 H         -4.8225411897        4.7367956312       -2.0343012496
 H         -4.8311490613        6.3989279700       -1.4503968598
 H         -6.1236325692        3.9925816407        0.0348828661
 H         -5.4974427498        4.3629262732        1.6399841006
 H         -6.1410323774        5.6538475395        0.6210771174
 H         -2.5080280924        6.2978049585        0.4662277696
 H         -3.4139655687        5.7856157849        1.9012538071
 H         -4.0959318862        6.9780078859        0.8015463300
 H         -4.8046870680        2.6378343844       -1.2055630250
 H         -3.6114226026        0.5210923048       -1.2288938126
 H          0.2545045902       -1.8041450732        1.1856174106
 H          2.7156243202       -1.7843156865        1.1663228816
 H          8.4936452753        1.4781639260       -0.1393271286
 H          7.4070984967        2.4917521962       -1.0992023656
 H          7.1349301590        2.3216224116        0.6292640657
 H          6.2735727960       -0.8042783026       -2.1817304260
 H          6.7090448103        0.8246626580       -2.6848768465
 H          7.9530552756       -0.2420264291       -2.0152197365
 H          7.9567900240        0.3320391022        2.0018748995
 H          6.2722979756        0.8774001323        2.1739288160
 H          6.7257531045       -0.7470817376        2.6755855458
 H          7.1556468883       -2.2397982190       -0.6398932528
 H          8.5084081399       -1.3826642237        0.1240552811
 H          7.4353538643       -2.4070420598        1.0876485815
 H          2.6938250798        1.8221285429       -1.1605217434
 H          0.2325391543        1.8143358620       -1.1759453518
 H         -3.5954001824       -0.5464870563        1.2645036538
 H         -4.7720853768       -2.6660404309        1.2542089887
 H         -2.2039644588       -6.1699104682       -0.0734503435
 H         -3.6017369867       -7.0695901289        0.5107312226
 H         -2.8423933071       -5.8493049033        1.5371122315
 H         -3.5338860972       -5.4418468047       -2.1305265320
 H         -4.9360913967       -6.3349261466       -1.5476599325
 H         -5.0768293938       -4.6155467137       -1.9256143904
 H         -6.0717600105       -4.3265389029        0.3913441333
 H         -5.8063737133       -6.0363531816        0.7112862887
 H         -5.1506104668       -4.8359190947        1.8179123468
 H         -1.7596626792       -4.3215936304       -1.3023871269
 H         -0.5941188403       -2.1854171189       -1.3084521381
 H         -0.6038892847        2.1905588167        1.3173526410
 H         -1.7775058586        4.3156995954        1.3190524568
