69
 xtb: 6.7.1 (edcfbbe)
C            3.53765539737364       -7.75558530156881        0.07847577833440
C            3.59928594078239       -6.64422134635146       -0.74681373845318
C            2.54745205959317       -5.74677599614012       -0.78427846258036
C            1.41270529534926       -5.95232501947990       -0.00129428599781
C            0.29112551579394       -4.99950422256702       -0.04450137528195
C           -1.02992006405632       -5.44914218832984       -0.07022603494365
C           -2.08134463387308       -4.54861206433997       -0.11052366197050
C           -1.83722079741116       -3.18891110646084       -0.11975689192108
C           -0.52270683678203       -2.72263766813818       -0.09141848212880
C           -0.24867356131472       -1.28376806276654       -0.08586354532256
N           -1.27562203485427       -0.45403157842191       -0.07554960844801
C           -1.00813835845562        0.89061726108530       -0.03957480999448
C           -2.09916041755151        1.81966587078856        0.00138115858342
C           -1.86545743972683        3.20474711431559        0.05566352095062
C           -2.92808789795765        4.08094392197771        0.09639491790976
C           -4.23356042362832        3.61254443211016        0.07925690487157
C           -4.49028025882861        2.23777925672933        0.02498768869204
C           -5.87078709948202        1.73258808636407        0.00169917857786
C           -6.22686174178141        0.60238871820754        0.73904546064699
C           -7.52562108413769        0.12965500185830        0.71977735009791
C           -8.48983172277804        0.77201734175030       -0.04190339734332
C           -8.14672922128598        1.89333695210643       -0.78215502652304
C           -6.85016663150232        2.37218201239939       -0.75871013508135
C           -3.42059223036351        1.35577972256731       -0.00988614817037
N            0.24367110370496        1.31351209505420       -0.03365265833106
C            1.25595353362281        0.46154622417728       -0.06379642973759
C            2.61020248317405        0.92793309534164       -0.05669630257486
C            3.68132225084006        0.02016202114568       -0.10918782867412
C            4.97926877044382        0.48350442852106       -0.10440365261025
C            5.24462014273802        1.84305479901725       -0.04916962603649
C            4.19363673304582        2.76620887985254        0.00794538885649
C            4.46660360434114        4.20962536927868        0.06758198334812
C            5.47843317312163        4.77648774724836       -0.70733697458412
C            5.73117367442538        6.13426328710091       -0.65079368508762
C            4.98261276252624        6.94885735786639        0.18427104508276
C            3.97647798384118        6.39627833043998        0.96130181243664
C            3.71746845958093        5.03991044053345        0.90151968872867
C            2.88847986179201        2.30009276437042        0.00552177089298
N            1.00920412781502       -0.88628201995677       -0.09565938970194
C            0.53180865747517       -3.63113332559829       -0.05739492511161
C            1.35950066998715       -7.07450107848787        0.82315657175265
C            2.41584341119573       -7.96655120552086        0.86444349822117
H            4.36448525668058       -8.45218937271044        0.03873905038526
H            4.44325830628453       -6.47359696841682       -1.43544953480346
H            2.56456115618685       -4.88719591187563       -1.47280992933475
H           -1.22956923486277       -6.51105751908829       -0.04089354056038
H           -3.09852603422507       -4.91175184332565       -0.06341972459549
H           -2.64712392603461       -2.47687669500530       -0.08151754885393
H           -0.84624088340882        3.56025945684129        0.02197358394760
H           -2.74207614365524        5.14620443213509        0.06799862626417
H           -5.05621921115221        4.31171176754869        0.06803708224403
H           -5.48512778110821        0.14261510046078        1.37327173436476
H           -7.79220542077072       -0.70695434035260        1.34627756116288
H           -9.50504954302438        0.40344361744054       -0.04276436764433
H           -8.89177762959500        2.36514311522704       -1.41060387209695
H           -6.58223705604530        3.20576707317080       -1.39654035396867
H           -3.58919044413913        0.29097313735600       -0.05414751321136
H            3.46324533884691       -1.03719854456254       -0.13458579455624
H            5.79831851612258       -0.22100145353908       -0.12565234742739
H            6.26480673488607        2.19180214083268       -0.01651290565711
H            6.05122961305346        4.14686458763894       -1.36894219141960
H            6.51229465587060        6.55811140817158       -1.26028119429283
H            5.18279221007396        8.00849119254136        0.23114064528058
H            3.39476587598953        7.02645173480741        1.62203588390946
H            2.94430233790791        4.61161904337470        1.52793420525248
H            2.05850201255558        2.98993984994606        0.03428370034617
H            1.54180176766757       -3.25188540537971       -0.02681301613442
H            0.52450529156798       -7.23666773972275        1.45486427381862
H            2.39693075143131       -8.82959406531094        1.48047910709437
