  107
 
 C         -9.8702449827        2.4092976414       -0.5978110723
 C         -8.6785861514        3.3682284603       -0.6685572195
 C         -8.8383302861        4.4080473675        0.4499681867
 C         -8.7083011990        4.0660092151       -2.0357862357
 C         -7.3449306541        2.6573376219       -0.4976498693
 C         -6.1650854429        3.4139509538       -0.5297198882
 C         -4.9128167307        2.8588160087       -0.3630281538
 C         -4.8280918945        1.4918202800       -0.1413770714
 C         -5.9991441467        0.7013048173       -0.1517793999
 C         -7.2457050819        1.2852519846       -0.3222672508
 C         -5.5727141337       -0.6601932575        0.0219056499
 C         -6.2594441764       -1.8631536904        0.0961793569
 C         -5.5606378752       -3.0436931218        0.2989995609
 C         -6.2445533425       -4.4005535325        0.3672510390
 C         -7.7595552356       -4.3069274348        0.1664083164
 C         -5.6740859251       -5.3042033011       -0.7355075345
 C         -5.9841465652       -5.0305758178        1.7429270360
 C         -4.1692606659       -2.9778269031        0.4579672213
 C         -3.4618222381       -1.7951095142        0.3894076838
 C         -4.1652535488       -0.6258671125        0.1375573683
 N         -3.7230050315        0.6803127215        0.0358484071
 C         -2.3993874007        1.0919690440        0.0966523982
 C         -2.0223124344        2.2335888909        0.8309740277
 C         -0.7158339799        2.6180950228        0.9068494376
 C          0.3275571215        1.8799429546        0.2721913380
 C          1.6912071773        2.2253211477        0.4000130780
 C          2.1257045413        3.5422530057        0.7782628988
 C          3.4384081492        3.8819321524        0.8746512816
 C          4.4368924696        2.9063507902        0.6391038864
 C          4.0170720631        1.5772052829        0.3127615571
 C          2.7160166823        1.2489685140        0.1680996758
 C          5.2338261359        0.6694032782        0.1755332188
 C          6.3621658961        1.6574158249        0.3584455688
 C          7.7114319488        1.4289956756        0.2955746765
 C          8.5870028741        2.4929269480        0.5217261169
 C          8.0959151487        3.7652201574        0.8116207636
 C          6.7429935382        4.0112905859        0.8802688808
 C          5.8480439958        2.9529811748        0.6503773132
 C          5.1963960330        0.0075952350       -1.1771478809
 C          5.6960777389        0.6589750625       -2.2922553588
 C          5.5323504214        0.1319196134       -3.5612099076
 C          4.8289290212       -1.0494897087       -3.7205881303
 C          4.3291512465       -1.7178324935       -2.6205320250
 C          4.5279469941       -1.2152182652       -1.3334982471
 N          4.0664236435       -1.8988444769       -0.2161548965
 C          3.1802128545       -2.9994607550       -0.3572727915
 C          3.6224807871       -4.2206409096       -0.8531915058
 C          2.7338963227       -5.2728358640       -0.9850521182
 C          1.4071909355       -5.1152731343       -0.6196384178
 C          0.9692240507       -3.9034899324       -0.1123795649
 C          1.8515180573       -2.8468077615        0.0217513373
 C          4.5240413882       -1.5746667590        1.0537372160
 C          4.3750694315       -2.4772894516        2.1080924520
 C          4.8580256656       -2.1716849302        3.3647257354
 C          5.5059008800       -0.9689260888        3.5888738783
 C          5.6557653684       -0.0694621767        2.5477946647
 C          5.1722690279       -0.3554970643        1.2819019516
 C         -0.0875227187        0.7464942083       -0.4920764261
 C         -1.3946727744        0.3712685168       -0.5778668393
 H         -9.9048021266        1.8986029964        0.3618168276
 H        -10.7948211192        2.9716461533       -0.7122679151
 H         -9.8268503692        1.6708344948       -1.3950341868
 H         -8.0530988333        5.1577068277        0.4111176049
 H         -8.7977074251        3.9221767065        1.4227395484
 H         -9.7967801319        4.9144447914        0.3566380130
 H         -9.6655170218        4.5621474316       -2.1820143581
 H         -8.5712940398        3.3375239772       -2.8323077958
 H         -7.9229842705        4.8120239898       -2.1185404594
 H         -6.2240842564        4.4785070189       -0.6965281425
 H         -4.0296676980        3.4759289224       -0.4220486229
 H         -8.1171459218        0.6520568989       -0.3187541649
 H         -7.3319952565       -1.8520485338       -0.0025267064
 H         -8.2214897835       -3.7049187805        0.9454592938
 H         -8.1933162015       -5.3039064810        0.2121593485
 H         -7.9997387064       -3.8808497738       -0.8049974093
 H         -5.8385361154       -4.8537668761       -1.7122754779
 H         -6.1650632357       -6.2749434277       -0.7158274871
 H         -4.6065724562       -5.4609005128       -0.6086701769
 H         -6.3638004153       -4.3828573987        2.5304263146
 H         -6.4864471234       -5.9930264888        1.8149496429
 H         -4.9229606937       -5.1878026623        1.9142453690
 H         -3.6161980762       -3.8849454565        0.6485625635
 H         -2.3939486785       -1.7858124168        0.5451849675
 H         -2.7786309924        2.7741140105        1.3809217796
 H         -0.4591290359        3.4673036354        1.5202886141
 H          1.3759135280        4.3017051225        0.9402043710
 H          3.7287978816        4.8914618398        1.1274521389
 H          2.4363135949        0.2361832586       -0.0719249181
 H          8.0945714607        0.4425685710        0.0749415634
 H          9.6528320241        2.3282658666        0.4742440188
 H          8.7954026627        4.5710689038        0.9844095765
 H          6.3687649639        4.9991739766        1.1036708363
 H          6.2071226176        1.6012316452       -2.1604001829
 H          5.9297908517        0.6518635035       -4.4192246198
 H          4.6655979476       -1.4570907529       -4.7072381674
 H          3.7746309287       -2.6327615942       -2.7617961266
 H          4.6611628542       -4.3395274175       -1.1250301772
 H          3.0802605708       -6.2203076065       -1.3704435264
 H          0.7170018495       -5.9386951729       -0.7256130917
 H         -0.0631359578       -3.7786828812        0.1786907505
 H          1.5163339220       -1.9031127771        0.4269099161
 H          3.8830413920       -3.4230639001        1.9367476986
 H          4.7312733724       -2.8803952031        4.1695803412
 H          5.8861867520       -0.7279617241        4.5696667188
 H          6.1475596823        0.8762567733        2.7201208539
 H          0.6438496547        0.2077512956       -1.0744862951
 H         -1.6807390381       -0.4572692209       -1.2095218884
