  116
 
 C        -11.2848498899       -5.1105790744       -1.1403850588
 C        -11.5488488547       -4.1022561311       -0.0116967019
 C        -12.9075926545       -3.4437722230       -0.2704583107
 C        -11.6253129963       -4.8370129544        1.3351041997
 C        -10.4086960572       -3.0948077766        0.0301507434
 C         -9.1068123256       -3.5535067704        0.2727573564
 C         -8.0120016565       -2.7141102540        0.3253966358
 C         -8.2227332142       -1.3559706502        0.1383501994
 C         -9.5198764875       -0.8707337456       -0.1325690912
 C        -10.6023877582       -1.7372895747       -0.1811611959
 C         -9.3907620355        0.5491231438       -0.3310673003
 C        -10.3104606902        1.5548558198       -0.5917861561
 C         -9.8814180679        2.8698235258       -0.7014484673
 C        -10.8342571717        4.0228318043       -0.9840250886
 C        -10.4106059539        4.7218919955       -2.2846887806
 C        -10.7780652751        5.0197301083        0.1835997419
 C        -12.2861927367        3.5616938726       -1.1449601949
 C         -8.5176814968        3.1435281954       -0.5295553064
 C         -7.5817153188        2.1629516723       -0.2684291403
 C         -8.0197063911        0.8495192233       -0.1855136448
 N         -7.3208189455       -0.3086634434        0.1017252413
 C         -5.9470104364       -0.3994380488        0.3222226698
 C         -5.4469223001       -1.1056483681        1.4194625110
 C         -4.0918819962       -1.1847581221        1.6376597652
 C         -3.1736858771       -0.5496284072        0.7837185443
 C         -1.7505468590       -0.6532093501        1.0154702694
 C         -1.2131178661       -1.8838371531        1.4291443222
 C          0.1331740585       -2.0920952036        1.5161055949
 C          1.0563421551       -1.0514823013        1.2013790654
 C          2.4356375400       -1.2380246687        1.2838158146
 C          3.3169609465       -0.2160743442        0.9714351249
 C          2.8567611039        1.0404921716        0.5623934338
 C          3.7520462870        2.1164752071        0.2223909627
 C          5.1706226574        1.9055352405        0.0287663463
 C          6.1094839417        2.8470457920        0.4847958718
 C          7.4583592783        2.6458865695        0.3177133700
 C          7.9355966050        1.4954758525       -0.3200402901
 C          9.3631523276        1.3062889169       -0.4485623858
 N         10.2335181628        2.2718765899       -0.6200901545
 N         11.4508309553        1.7301162903       -0.7273576454
 C         11.3395300430        0.4307382271       -0.6160628556
 C         12.4608958272       -0.4932537272       -0.6421026504
 C         12.5105280824       -1.6170156191        0.1805911918
 C         13.6057350243       -2.4602228100        0.1360155289
 C         14.6608227681       -2.1918379142       -0.7205793064
 C         14.6253811506       -1.0648959236       -1.5271118716
 C         13.5348127577       -0.2173890489       -1.4879851560
 N         10.0179234682        0.0938838388       -0.4354808167
 C          9.4614310081       -1.1865724647       -0.2604432922
 C          8.6678983127       -1.4479731521        0.8520006655
 C          8.1132227611       -2.7041637087        1.0151091923
 C          8.3529444930       -3.6995966606        0.0814287010
 C          9.1496355213       -3.4380718032       -1.0214975187
 C          9.7038193203       -2.1832963897       -1.1995886694
 C          7.0087053096        0.5851046829       -0.8383695465
 C          5.6597958888        0.7853857319       -0.6636491941
 C          3.2198598983        3.4029272559        0.0380382620
 C          1.8757449298        3.6413878567        0.0752639454
 C          0.9516004826        2.5830328133        0.3177316848
 C         -0.4245689944        2.8012052052        0.3668460807
 C         -1.3077328118        1.7593920408        0.5989215889
 C         -0.8521749209        0.4504363572        0.7888364309
 C          0.5504869941        0.2243647820        0.8404236974
 C          1.4552577713        1.2793673160        0.5636917343
 C         -3.6928096576        0.1395383839       -0.3262081570
 C         -5.0463611212        0.2127483682       -0.5540545327
 H        -10.3656221185       -5.6648597337       -0.9716805528
 H        -11.2003782186       -4.5933250101       -2.0943669273
 H        -12.1047417321       -5.8230264731       -1.2050024418
 H        -13.6835667888       -4.2068143013       -0.2790751033
 H        -13.1506605492       -2.7272409642        0.5110456473
 H        -12.9223097400       -2.9410670102       -1.2349315495
 H        -11.7894905520       -4.1262448335        2.1428804597
 H        -12.4500465194       -5.5467720882        1.3272094290
 H        -10.7097938160       -5.3837622070        1.5432923654
 H         -8.9371470718       -4.6091295972        0.4199360502
 H         -7.0229598257       -3.1132405607        0.4921903676
 H        -11.5783289300       -1.3332716306       -0.3914652689
 H        -11.3493817129        1.2905742371       -0.6956719796
 H        -11.0898041604        5.5426251354       -2.5061188571
 H         -9.4042432760        5.1246841460       -2.2106750578
 H        -10.4368153928        4.0190485374       -3.1153047401
 H        -11.4758157196        5.8367089306        0.0112294965
 H        -11.0488589497        4.5250047958        1.1145266006
 H         -9.7835587070        5.4416582175        0.2994195565
 H        -12.3862925552        2.8639308523       -1.9733498780
 H        -12.6514790264        3.0919760902       -0.2343977240
 H        -12.9177071006        4.4230277203       -1.3539893338
 H         -8.1707974788        4.1634279487       -0.5950010975
 H         -6.5442408987        2.4215224086       -0.1201034012
 H         -6.1362066349       -1.5605354765        2.1152805681
 H         -3.7276627826       -1.7006561637        2.5134516717
 H         -1.8896824043       -2.7045024141        1.6209485418
 H          0.5240850540       -3.0575430191        1.8022645047
 H          2.8194469535       -2.1970628614        1.6020172968
 H          4.3775920761       -0.3879644283        1.0739594714
 H          5.7656174478        3.7220002550        1.0161961815
 H          8.1752572459        3.3620306043        0.6904032757
 H         11.7028984852       -1.8238685658        0.8677697485
 H         13.6355507025       -3.3286002064        0.7777008067
 H         15.5125331303       -2.8548809737       -0.7535558521
 H         15.4502263696       -0.8462662756       -2.1891048948
 H         13.4937960897        0.6667966140       -2.1058499087
 H          8.4899954427       -0.6660595985        1.5762442073
 H          7.4952859726       -2.9044100399        1.8773673730
 H          7.9194489826       -4.6790962000        0.2137415022
 H          9.3386955017       -4.2108905001       -1.7510974218
 H         10.3221601124       -1.9684641457       -2.0591331004
 H          7.3486790344       -0.2708630132       -1.4036346331
 H          4.9594603563        0.0927099794       -1.1070805650
 H          3.8968814607        4.2116863384       -0.1978947156
 H          1.4881354310        4.6341076506       -0.1009793262
 H         -0.8040005744        3.8033112048        0.2252064552
 H         -2.3637333399        1.9718886371        0.6637233695
 H         -3.0108307341        0.5720593898       -1.0429760163
 H         -5.4224359014        0.7155585537       -1.4327811040
