  96
 
 C         -3.1465238362       -5.6655248034       -0.5274672697
 C         -3.6358847866       -4.5785764221        0.1793830152
 C         -2.8426235017       -3.4656371868        0.3799849168
 C         -1.5398887485       -3.4262824035       -0.1196998981
 C         -0.7357556781       -2.2206625047        0.0708823019
 N         -1.3618420737       -1.0527983145        0.0449484427
 C         -0.7320508895        0.1181957118        0.0405476818
 C         -1.4159275953        1.3436764075       -0.0446960394
 C         -2.8744548084        1.3799575585       -0.0530844684
 C         -3.6194650640        0.5387947305        0.7782499476
 C         -4.9958011525        0.5782234969        0.7816269929
 C         -5.6753897134        1.4561822876       -0.0621899425
 N         -7.0763436996        1.4737773687       -0.0789518343
 C         -7.8771728675        2.5920780569        0.0365574092
 C         -7.5195990737        3.9184475695        0.2371390409
 C         -8.5338379077        4.8506937722        0.3493310335
 C         -9.8748030051        4.4790210767        0.2757861987
 C        -10.2373879417        3.1572938252        0.1007452326
 C         -9.2362096566        2.2023205966       -0.0161828009
 C         -9.2445787628        0.7741517465       -0.1793718552
 C        -10.2563022991       -0.1676960269       -0.3118382094
 C         -9.9081697033       -1.4941175197       -0.4807340756
 C         -8.5711741557       -1.8832941931       -0.5341714749
 C         -7.5464987196       -0.9646312709       -0.4059962564
 C         -7.8904004414        0.3662674499       -0.2097394577
 C         -4.9454407908        2.3050318885       -0.8914053917
 C         -3.5669160443        2.2678316485       -0.8820698584
 C         -0.6618848529        2.5218410345       -0.1797482746
 C          0.7073372829        2.5016989061       -0.2388507507
 C          1.4355502550        1.3023554069       -0.1297592578
 C          2.8934610482        1.3092357650       -0.1134463595
 C          3.6083948711        2.2688440931       -0.8426629626
 C          4.9857515245        2.2698090501       -0.8631382983
 C          5.7039849897        1.3224121352       -0.1346069982
 N          7.1044655883        1.3233325120       -0.1486517374
 C          7.9140177039        2.4181292977        0.0805569959
 C          7.5665891332        3.7214586944        0.4096848711
 C          8.5879269566        4.6301414810        0.6137767313
 C          9.9260722545        4.2569742269        0.5056024021
 C         10.2786214574        2.9558409751        0.2018110820
 C          9.2701518657        2.0251607132       -0.0083349033
 C          9.2681255814        0.6198531372       -0.3106869555
 C         10.2740677158       -0.3108794419       -0.5330681299
 C          9.9179319744       -1.6122535850       -0.8311905860
 C          8.5785929066       -1.9856203074       -0.9218864370
 C          7.5598625917       -1.0768835245       -0.7056891222
 C          7.9110842931        0.2269992920       -0.3829143566
 C          5.0064561569        0.3738164297        0.6113110719
 C          3.6289967220        0.3705682478        0.6173679883
 C          0.7164719905        0.1028801568        0.0192062598
 N          1.3145754638       -1.0737631877        0.1601644187
 C          0.6656665262       -2.2274731043        0.2511744118
 C          1.4514074775       -3.4153431787        0.5752279342
 C          2.7489337933       -3.5265795063        0.0712229451
 C          3.5319868431       -4.6181268402        0.3924827604
 C          3.0382605820       -5.6090619784        1.2263523890
 C          1.7582484187       -5.4952123736        1.7474098924
 C          0.9692520702       -4.4063106198        1.4311306007
 C         -1.0633201165       -4.5148418096       -0.8511289319
 C         -1.8615936073       -5.6251485750       -1.0470119072
 H         -3.7656094723       -6.5369289120       -0.6810566379
 H         -4.6404054468       -4.5983028799        0.5767461432
 H         -3.2173462097       -2.6150463525        0.9282412282
 H         -3.1018807075       -0.1311887444        1.4468578758
 H         -5.5579859524       -0.0561893250        1.4510039525
 H         -6.4839568848        4.2130350844        0.3138845357
 H         -8.2813033088        5.8898917069        0.5021805496
 H        -10.6386568241        5.2373580197        0.3662690028
 H        -11.2770556651        2.8684523639        0.0608112813
 H        -11.2925971815        0.1346912442       -0.2882470022
 H        -10.6805432190       -2.2422739948       -0.5830990195
 H         -8.3297305237       -2.9254165087       -0.6848775271
 H         -6.5137032841       -1.2725887775       -0.4696827133
 H         -5.4666792437        2.9734164210       -1.5608351863
 H         -3.0157580796        2.9120548781       -1.5508530660
 H         -1.1832105447        3.4664062825       -0.2142080143
 H          1.2458712206        3.4331268270       -0.3189888212
 H          3.0758078221        2.9916065436       -1.4416776935
 H          5.5173162900        2.9897608928       -1.4678146075
 H          6.5334878030        4.0155600410        0.5156043940
 H          8.3432207513        5.6511640626        0.8680280469
 H         10.6957952676        4.9964378903        0.6710233090
 H         11.3159456934        2.6641052979        0.1336411790
 H         11.3120840096       -0.0187838926       -0.4785323854
 H         10.6856561152       -2.3518030547       -1.0053611694
 H          8.3309827617       -3.0071243824       -1.1713579975
 H          6.5255448945       -1.3714846832       -0.7955046426
 H          5.5518910264       -0.3451998547        1.2043442124
 H          3.1055942835       -0.3624417682        1.2119589343
 H          3.1224444401       -2.7489994929       -0.5785580190
 H          4.5322180073       -4.6962118852       -0.0083981746
 H          3.6501690180       -6.4632183649        1.4755099716
 H          1.3749312184       -6.2564438192        2.4111010169
 H         -0.0196844214       -4.3138000466        1.8557177128
 H         -0.0707900068       -4.4828814449       -1.2759312260
 H         -1.4807976171       -6.4617386617       -1.6144353736
