  112
 
 C         12.4751170928        2.5928013622        2.3245175595
 C         11.5888999692        1.6143600097        2.5048895331
 C         11.0127277402        0.7552273811        1.4847094924
 C         11.3380391733        0.8512905092        0.1268724231
 C         10.7584567753        0.0148763362       -0.8030879129
 C          9.8372523519       -0.9532869253       -0.4144020535
 C          9.2243751138       -1.8804074111       -1.4349334523
 O          7.9369262491       -2.3537425872       -1.0895902401
 C          6.8943764493       -1.4772843114       -1.0746611286
 C          6.9771648977       -0.1206301802       -1.3551176147
 C          5.8381209173        0.6825474600       -1.3499675108
 C          4.5872028869        0.1801529685       -1.0467918607
 C          4.4982156136       -1.1686513701       -0.7305104755
 C          5.6348467480       -2.0080841280       -0.7624945677
 C          5.1826287315       -3.3323626785       -0.4584583825
 C          5.8278356576       -4.5569349032       -0.3267938491
 C          5.0785811186       -5.6649151591        0.0172394471
 C          3.7072899099       -5.5630323355        0.2476158300
 C          3.0436521737       -4.3551810244        0.1193509882
 C          3.7828231759       -3.2436295978       -0.2566190503
 N          3.3813510515       -1.9289535455       -0.4237854930
 C          2.0809165524       -1.4540882169       -0.3190588454
 C          1.0169541937       -2.1399175601       -0.9321035062
 C         -0.2647294137       -1.6656540279       -0.8426966792
 C         -0.5447613071       -0.4804730347       -0.1341805301
 N         -1.8416531341        0.0067043992       -0.0505790633
 C         -2.0694027127        1.3764258481       -0.0560501211
 C         -3.1125448998        1.9357036336        0.7074633149
 C         -3.3393736239        3.2864993325        0.6969969302
 C         -2.5358642608        4.1435016009       -0.0762217368
 N         -2.7683237016        5.5118452912       -0.0874224751
 C         -1.8048502275        6.5014369631        0.0281672676
 C         -0.4403435489        6.3869412758        0.2419774051
 C          0.3004646707        7.5519244139        0.3544647707
 C         -0.3028677667        8.8057803047        0.2669568705
 C         -1.6661170140        8.9281916305        0.0855071821
 C         -2.4318728583        7.7719714009       -0.0261302668
 C         -3.8350416250        7.5314601427       -0.1821109320
 C         -4.9405179156        8.3663547874       -0.3108209150
 C         -6.1849070979        7.7959307456       -0.4912240133
 C         -6.3374402498        6.4118961764       -0.5616366488
 C         -5.2528549954        5.5605892053       -0.4299121706
 C         -4.0049061536        6.1242949784       -0.2167202236
 C         -1.4926926130        3.5868203403       -0.8375988763
 C         -1.2640976980        2.2363489333       -0.8280721107
 C         -2.9119567383       -0.8739273905        0.0270146042
 C         -2.7955598501       -2.0887321834        0.7304969060
 C         -3.8511734636       -2.9586737256        0.8024358606
 C         -5.0733720079       -2.6581186787        0.1746486688
 N         -6.1413422139       -3.5418337873        0.2429427101
 C         -7.4585836115       -3.2052634200        0.5126609522
 C         -8.0070215758       -1.9767453771        0.8452832825
 C         -9.3660731406       -1.9199577125        1.1062080129
 C        -10.1635137706       -3.0620385759        1.0471330872
 C         -9.6192562828       -4.2950771050        0.7473278168
 C         -8.2551732252       -4.3779107921        0.4862789236
 C         -7.3742534474       -5.4661692881        0.1854314002
 C         -7.5669007633       -6.8330051908        0.0115060277
 C         -6.4806464999       -7.6194238076       -0.3171774658
 C         -5.2154234721       -7.0603192441       -0.4913473725
 C         -4.9981124573       -5.7033777849       -0.3184087098
 C         -6.0769238154       -4.9119049461        0.0426163120
 C         -5.1917481619       -1.4444431987       -0.5262487659
 C         -4.1375248411       -0.5732012826       -0.5990099822
 C          0.5213484896        0.2014382450        0.4851528829
 C          1.8023233497       -0.2747602628        0.3950080376
 C          9.5117491309       -1.0641670482        0.9327820924
 C         10.0850826253       -0.2223090111        1.8622909005
 H         12.8690215954        2.8540159661        1.3573956763
 H         12.8409772894        3.1734597657        3.1542025662
 H         11.2389865371        1.4117978614        3.5107693539
 H         12.0498597619        1.5915813692       -0.2040282143
 H         11.0215719603        0.1096618907       -1.8480392318
 H          9.8286073514       -2.7931981007       -1.5113697474
 H          9.2036551911       -1.4020803996       -2.4239192576
 H          7.9277560260        0.3343917496       -1.5814166080
 H          5.9450827308        1.7289607579       -1.5936848013
 H          3.7163447429        0.8150256528       -1.0729529066
 H          6.8925392640       -4.6244382267       -0.4872186619
 H          5.5610315774       -6.6259212070        0.1227300311
 H          3.1520185722       -6.4431520518        0.5369128512
 H          1.9859998838       -4.2858943333        0.3223868245
 H          1.2279840105       -3.0219514813       -1.5166724519
 H         -1.0690574105       -2.1765669885       -1.3502453128
 H         -3.7109288491        1.2898009327        1.3322695546
 H         -4.1124085822        3.7102952509        1.3193554814
 H          0.0369684604        5.4232892067        0.3339203870
 H          1.3659697535        7.4873213379        0.5190333197
 H          0.3082637878        9.6924770075        0.3543419764
 H         -2.1345022385        9.9000034839        0.0376186514
 H         -4.8216066458        9.4390813885       -0.2766370639
 H         -7.0550824887        8.4283747993       -0.5922841130
 H         -7.3198575025        5.9947777785       -0.7272297313
 H         -5.3825419056        4.4920251833       -0.5081462442
 H         -0.8998044113        4.2314445256       -1.4680328266
 H         -0.4853454882        1.8134216130       -1.4447350958
 H         -1.8729847243       -2.3106772059        1.2454629790
 H         -3.7666880161       -3.8653393846        1.3814805983
 H         -7.3982947156       -1.0884279122        0.9166920843
 H         -9.8155646512       -0.9727798356        1.3656643320
 H        -11.2210712804       -2.9779110464        1.2517246127
 H        -10.2349716709       -5.1818329817        0.7217514659
 H         -8.5499619789       -7.2649004326        0.1260670865
 H         -6.6109814418       -8.6830706505       -0.4551442365
 H         -4.3889582674       -7.6968276446       -0.7712587921
 H         -4.0177938931       -5.2813262533       -0.4781747717
 H         -6.1107373962       -1.2263753118       -1.0480798669
 H         -4.2249609965        0.3378541465       -1.1716882107
 H          0.3113917055        1.0880642418        1.0643363008
 H          2.6056287940        0.2299459021        0.9091812525
 H          8.7980935747       -1.8137263685        1.2453967044
 H          9.8154074743       -0.3201090392        2.9048793383
