69

C      8.910764   -0.569610    1.473482
C      7.627770   -0.770908    0.733077
C      6.554947    0.016761    0.872655
C      5.360345   -0.279150    0.096664
C      4.214795    0.519495    0.211899
C      3.065867    0.217241   -0.534030
N      1.900101    1.031525   -0.410859
C      1.888629    2.428250   -0.387322
C      2.918911    3.380107   -0.541786
C      2.595645    4.739402   -0.489996
C      1.282469    5.152441   -0.310142
C      0.257676    4.210577   -0.195271
C      0.558289    2.831532   -0.247451
C     -0.247745    1.658144   -0.197647
C     -1.636504    1.442057   -0.069365
C     -2.197105    0.142606   -0.009514
C     -1.331116   -0.959000   -0.060297
C      0.068306   -0.746591   -0.190002
C      0.592701    0.556698   -0.291735
C     -1.864160   -2.399570    0.032471
C     -1.425722   -3.162204   -1.245739
C     -1.238397   -3.069184    1.283681
C     -3.390933   -2.500433    0.150648
C     -4.009009   -3.773857    0.230058
C     -5.390227   -3.916940    0.336575
C     -6.189729   -2.788642    0.366808
C     -5.601341   -1.525682    0.292098
C     -4.200543   -1.351177    0.185015
N     -3.621084   -0.036524    0.112903
C     -4.476647    1.115239    0.160228
C     -4.823178    1.689517    1.392748
C     -5.651999    2.811094    1.436840
C     -6.139124    3.365170    0.252557
C     -5.799987    2.800757   -0.977593
C     -4.971408    1.679153   -1.025553
C      3.063619   -0.884761   -1.397687
C      4.206230   -1.678879   -1.514605
C      5.352454   -1.376338   -0.767470
C      6.557395   -2.229789   -0.900640
O      6.571846   -3.195891   -1.654267
O      7.639850   -1.881848   -0.141893
H      9.139493   -1.452041    2.079417
H      8.867481    0.296743    2.141491
H      9.732844   -0.411428    0.768264
H      6.553551    0.866463    1.546977
H      4.210167    1.348929    0.916521
H      3.948171    3.084553   -0.719102
H      3.382550    5.481889   -0.602783
H      1.045627    6.212818   -0.274772
H     -0.770796    4.541122   -0.076771
H     -2.268565    2.322602   -0.010118
H      0.743417   -1.596796   -0.193224
H     -1.736616   -4.212469   -1.233458
H     -1.858239   -2.703698   -2.144009
H     -0.338136   -3.171726   -1.375983
H     -1.544827   -4.115119    1.394322
H     -0.143528   -3.076246    1.251180
H     -1.534515   -2.543224    2.200121
H     -3.410162   -4.681923    0.209853
H     -5.835081   -4.906428    0.394995
H     -7.269052   -2.881282    0.448543
H     -6.269469   -0.668496    0.319095
H     -4.442546    1.257317    2.314646
H     -5.917281    3.251735    2.394193
H     -6.785160    4.238870    0.288383
H     -6.180454    3.233309   -1.899134
H     -4.706456    1.238662   -1.983342
H      2.200776   -1.116682   -2.018926
H      4.204156   -2.528242   -2.195928
