  69
 
 C          8.8376710713       -3.4258482672        0.1070500136
 C          8.8479429446       -2.2890417443        0.8998538440
 C          7.8010119882       -1.3891218516        0.8417292952
 C          6.7274452907       -1.6192372747       -0.0186389596
 C          5.5910943440       -0.7128133794       -0.0689867768
 N          4.3466332598       -1.1879383845       -0.1534534442
 C          3.5342947253       -0.1301724234       -0.0766811875
 C          2.1402657107       -0.1705571985       -0.1106784156
 C          1.4456112700       -1.4147824762       -0.2271965003
 C          0.0908259867       -1.4304807742       -0.1750152280
 C         -0.6443160010       -0.2149628613       -0.0133762484
 C         -2.0703177929       -0.1616581942       -0.0025392272
 C         -2.7684578423        0.9088272093        0.6039505627
 C         -4.1361418567        0.9589029295        0.6186283420
 C         -4.9000254285       -0.0559301594        0.0198588323
 N         -6.2889259855        0.0005413684        0.0245607654
 C         -6.9437296446        1.2352675068       -0.0416345937
 C         -6.4377481499        2.2633379046       -0.8385013910
 C         -7.0868980749        3.4807205339       -0.8944440398
 C         -8.2472354056        3.6918638500       -0.1665190569
 C         -8.7561624147        2.6722692226        0.6223086025
 C         -8.1124423752        1.4525918138        0.6897509990
 C         -7.0431796627       -1.1761270801        0.0882675361
 C         -6.6237296579       -2.2434353490        0.8837346993
 C         -7.3711459420       -3.4031593940        0.9380557808
 C         -8.5447334782       -3.5170274863        0.2095724116
 C         -8.9675641197       -2.4580629919       -0.5781856577
 C         -8.2254545925       -1.2955179704       -0.6438423973
 C         -4.2244045002       -1.1264696132       -0.5869568952
 C         -2.8564147104       -1.1762514258       -0.5967313515
 C          0.1492009318        0.9645617871        0.0494164344
 N          1.4389303262        0.9926657522       -0.0139540418
 O          4.2230879862        1.0442838514        0.0587164246
 C          5.5439119783        0.6978908936        0.0330403834
 C          6.5266726591        1.7298333570        0.0175546146
 C          7.8468973650        1.5047373776       -0.4123256208
 C          8.7601088824        2.5353604682       -0.4183435855
 C          8.3922331283        3.8111647422       -0.0092627874
 C          7.0846213717        4.0526356180        0.3931631181
 C          6.1599882749        3.0334607706        0.4032409250
 C          6.7107180682       -2.7785142535       -0.7923984394
 C          7.7640424290       -3.6705379336       -0.7342783690
 H          9.6610401623       -4.1235366157        0.1522342702
 H          9.6749133903       -2.1054775920        1.5703285495
 H          7.8005720564       -0.5143651829        1.4755102433
 H          2.0373928414       -2.3124288639       -0.2986101185
 H         -0.4404060530       -2.3700511675       -0.2052941073
 H         -2.2129111660        1.6854646585        1.1060799008
 H         -4.6422229616        1.7741132445        1.1154141374
 H         -5.5416278765        2.0940741517       -1.4170233933
 H         -6.6884460307        4.2676710667       -1.5172347827
 H         -8.7519839478        4.6445197425       -0.2140998841
 H         -9.6570187457        2.8307624004        1.1962242864
 H         -8.5025596358        0.6625417821        1.3145392878
 H         -5.7165877277       -2.1492330147        1.4622073277
 H         -7.0393115942       -4.2211317538        1.5599674079
 H         -9.1263144652       -4.4248976120        0.2558102320
 H         -9.8781072852       -2.5410860772       -1.1526976631
 H         -8.5487869694       -0.4752544507       -1.2678232040
 H         -4.7973905586       -1.9031303164       -1.0728082715
 H         -2.3690144348       -1.9926374943       -1.1065087472
 H         -0.3298127225        1.9352535115        0.0710777321
 H          8.1338425709        0.5263786891       -0.7647126876
 H          9.7701294959        2.3500084943       -0.7543592437
 H          9.1159035193        4.6123594722       -0.0152446181
 H          6.7913441997        5.0462249217        0.6998312433
 H          5.1426615314        3.2139432353        0.7148217778
 H          5.8642782431       -2.9591860627       -1.4366617049
 H          7.7487817445       -4.5618465609       -1.3444621913
