  71
 
 Cl        -1.4430629178       -2.6787059219       -0.7226148519
 C         -0.6522827050       -1.2597044537       -0.0993940304
 C          0.7646845685       -1.2333410680        0.0209559500
 N          1.5393544702       -2.3685768391       -0.1308897538
 C          2.6788510904       -2.4630134737       -0.9125808666
 C          3.2975949376       -1.4941763355       -1.6878211405
 C          4.4312597985       -1.8604325996       -2.3896200920
 C          4.9324153980       -3.1584557999       -2.3342713651
 C          4.3103807691       -4.1308762967       -1.5725691578
 C          3.1759379841       -3.7848816036       -0.8540112199
 C          2.3038533926       -4.5127184836        0.0292214281
 C          2.2987354811       -5.8166550066        0.5008979515
 C          1.3272773600       -6.1871941721        1.4124457221
 C          0.3909242075       -5.2662604830        1.8747020332
 C          0.3775548450       -3.9618112170        1.4179747276
 C          1.3186599897       -3.5969656231        0.4659396544
 N          1.4215456889       -0.0680564983        0.1276858602
 C          0.8084359612        1.0716548411        0.2746767275
 N          1.5523927200        2.2169862994        0.3447042412
 C          1.0849176815        3.5195346539        0.1878284149
 C         -0.1787914978        3.9852655473       -0.1421409835
 C         -0.3625595847        5.3522856688       -0.2519419052
 C          0.6850851087        6.2457589025       -0.0559507613
 C          1.9544892925        5.7887401880        0.2472110794
 C          2.1572691869        4.4227274893        0.3642324817
 C          3.3285297546        3.6297755937        0.6308142314
 C          4.6512883815        3.9597929868        0.8808189146
 C          5.5567261133        2.9376263344        1.1002605829
 C          5.1478530395        1.6082479162        1.0781928184
 C          3.8312801540        1.2578644284        0.8342168621
 C          2.9214559449        2.2779752214        0.6011686284
 C         -0.6432422127        1.1155827343        0.4542881430
 Cl        -1.1526917328        1.7618452436        2.0464699569
 C         -1.3570621085       -0.0942719314        0.0654847439
 N         -2.7381297311       -0.0236199713       -0.0767413774
 C         -3.6794186618       -0.7839553363        0.5879153833
 C         -3.5005942943       -1.7725757766        1.5435068152
 C         -4.6297822377       -2.3620330269        2.0803303747
 C         -5.9075038489       -1.9719724590        1.6887886581
 C         -6.0915759962       -0.9624000536        0.7621710189
 C         -4.9733547469       -0.3575326254        0.2080616423
 C         -4.7914759974        0.7185295418       -0.7298960230
 C         -5.6613740667        1.5283644162       -1.4445898111
 C         -5.1301775056        2.4860641513       -2.2894820386
 C         -3.7534024178        2.6269743687       -2.4436692936
 C         -2.8666187347        1.8243875438       -1.7498818941
 C         -3.3960476246        0.8896867174       -0.8735839489
 H          2.9101552631       -0.4892417921       -1.7325773895
 H          4.9373426228       -1.1235538484       -2.9952268627
 H          5.8192601408       -3.4070526823       -2.8979608632
 H          4.6968829032       -5.1380931064       -1.5353591569
 H          3.0446976654       -6.5221810590        0.1678490955
 H          1.3024560378       -7.1992830765        1.7877108223
 H         -0.3366487893       -5.5753288487        2.6102285800
 H         -0.3337568544       -3.2496676011        1.8052622208
 H         -1.0024990400        3.3111223952       -0.3082932885
 H         -1.3429277279        5.7293180908       -0.5014330625
 H          0.5042202448        7.3058469682       -0.1514203487
 H          2.7743282727        6.4767323150        0.3864536798
 H          4.9627563731        4.9929503305        0.9040643771
 H          6.5926411836        3.1718602478        1.2949655045
 H          5.8726938923        0.8282190365        1.2566580332
 H          3.5235639764        0.2266117817        0.8226732937
 H         -2.5150460350       -2.0646639681        1.8701577865
 H         -4.5179317618       -3.1385844281        2.8223582542
 H         -6.7655413670       -2.4585687110        2.1280396453
 H         -7.0832996242       -0.6438854676        0.4786812381
 H         -6.7295528474        1.4102370816       -1.3431949007
 H         -5.7916707560        3.1288826313       -2.8509256947
 H         -3.3702672303        3.3708236683       -3.1263632673
 H         -1.8002810348        1.9079790817       -1.8957054420
