  68
 
 C          6.8475839976        3.4330214925        0.2792812760
 C          7.8013407744        2.4406575524        0.0728763755
 C          7.4306124174        1.1164796388       -0.0432452001
 C          6.0847408110        0.7672247338        0.0436971054
 C          5.1390882646        1.7829862111        0.2541124661
 C          5.5061807866        3.1126153972        0.3718206806
 S          3.4977463004        1.1662375262        0.3379791065
 C          4.0776630550       -0.4693414237        0.0674734035
 C          5.4773994028       -0.5365173933       -0.0461430578
 C          6.1205252120       -1.7709849204       -0.1896796135
 C          5.3967498208       -2.9408063797       -0.1814873294
 C          4.0089677369       -2.8830321650       -0.0637382735
 C          2.9988010600       -3.8999115604        0.0430604797
 C          3.0392632560       -5.2891107564        0.0237762742
 C          1.8541222670       -5.9849268938        0.1573183234
 C          0.6406229407       -5.3161840442        0.3053829005
 C          0.5759035852       -3.9350111429        0.3262399124
 C          1.7641151668       -3.2352526488        0.1983968624
 N          1.9766926972       -1.8628986097        0.1496844201
 C          0.9760123289       -0.9074000020        0.0823828865
 C          0.9984213362        0.1168129524       -0.8720221357
 N          0.0354276176        1.0111067367       -0.9440409041
 C         -0.9759833101        0.9074687441       -0.0824114533
 N         -1.9766944179        1.8629266740       -0.1497751542
 C         -1.7641508912        3.2352811336       -0.1986747682
 C         -0.5759598008        3.9350538651       -0.3266291214
 C         -0.6407167098        5.3162281929       -0.3059755341
 C         -1.8542326595        5.9849603881       -0.1580004054
 C         -3.0393525986        5.2891311659       -0.0243413692
 C         -2.9988513656        3.8999303327       -0.0434214249
 C         -4.0089923392        2.8830405548        0.0635193462
 C         -5.3967744465        2.9408078889        0.1812650738
 C         -6.1205290285        1.7709750834        0.1896217770
 C         -5.4773803362        0.5365009525        0.0462498051
 C         -6.0847032174       -0.7672629306       -0.0433922081
 C         -7.4305663641       -1.1165271256        0.0436443567
 C         -7.8012740661       -2.4407315071       -0.0722454735
 C         -6.8475057154       -3.4331114864       -0.2785205163
 C         -5.5061116526       -3.1126955705       -0.3711595708
 C         -5.1390401516       -1.7830397047       -0.2536830869
 S         -3.4977124920       -1.1662734633       -0.3376904282
 C         -4.0776434488        0.4693333536       -0.0673795082
 C         -3.3368390160        1.6420938553       -0.0180440399
 C         -0.9983629508       -0.1167114413        0.8720303954
 N         -0.0353808219       -1.0110203118        0.9440334683
 C          3.3368405353       -1.6420826278        0.0179837165
 H          7.1555378946        4.4639291754        0.3669828273
 H          8.8440051633        2.7121780039        0.0034948432
 H          8.1738610598        0.3509556544       -0.2040969784
 H          4.7574861265        3.8732359260        0.5318638691
 H          7.1948974381       -1.7947472913       -0.2795440955
 H          5.8914124836       -3.8964994922       -0.2524872647
 H          3.9783059718       -5.8072033043       -0.0948402833
 H          1.8632195668       -7.0645398678        0.1473228915
 H         -0.2697676045       -5.8876221444        0.4078759067
 H         -0.3612688327       -3.4153244065        0.4488501525
 H          1.7856200643        0.2002099910       -1.6079457997
 H          0.3612253612        3.4153755260       -0.4491736188
 H          0.2696574230        5.8876751804       -0.4085638768
 H         -1.8633591642        7.0645746328       -0.1481663015
 H         -3.9784087499        5.8072152267        0.0942057891
 H         -5.8914525700        3.8965021128        0.2521384764
 H         -7.1949009574        1.7947291900        0.2794914964
 H         -8.1738228659       -0.3509912499        0.2044017307
 H         -8.8439309529       -2.7122601512       -0.0027824464
 H         -7.1554431717       -4.4640394593       -0.3660407645
 H         -4.7574084537       -3.8733278112       -0.5311061846
 H         -1.7855287998       -0.2000707580        1.6079927960
