  85
 
 C          4.0963519220        2.5742897977        1.9444518901
 C          4.8766496119        1.3985832614        1.3661483392
 C          4.0268460394        0.5959568075        0.3831737921
 C          4.7787239481       -0.5473517875       -0.3013909960
 C          5.3224194611       -1.6329419171        0.6310339923
 C          4.2358152170       -2.3525120780        1.4429977269
 N          3.2300242156       -2.9612925104        0.5958743430
 C          1.9520154716       -2.4103012420        0.4913892303
 C          1.3657539192       -1.6609051905        1.4398155397
 C          0.0260080097       -1.0138736525        1.2920411890
 C         -0.5523032814       -1.0752061034       -0.0976348038
 C         -1.6062636939       -0.3402311477       -0.4838924031
 C         -2.3211876434        0.6827462330        0.3476532656
 C         -3.8157761401        0.6622712001        0.1468944577
 C         -4.6939860156       -0.3745381997        0.3637852236
 C         -6.0536998541       -0.1861576054        0.1018491797
 C         -7.0105408105       -1.2813655221        0.3231542201
 C         -6.9179948544       -2.0887994008        1.4553215274
 C         -7.8197736393       -3.1157465187        1.6652743284
 C         -8.8267918189       -3.3581974250        0.7455328759
 C         -8.9269777242       -2.5644406109       -0.3852993311
 C         -8.0290529864       -1.5338210081       -0.5940072341
 C         -6.4955938935        1.0511862665       -0.3696373934
 C         -5.6173334878        2.0975088115       -0.5869228988
 C         -4.2689048367        1.9021352342       -0.3314648272
 C         -3.1258532112        2.7850354274       -0.4790309657
 C         -3.0285404169        4.0955097606       -0.9214672259
 C         -1.7802889732        4.6890052282       -0.9818132948
 C         -0.6255410526        3.9946517316       -0.6181506929
 C          0.6946780532        4.6355470157       -0.7182444028
 C          0.8845601987        5.9538181715       -0.3089382893
 C          2.1287336457        6.5498017058       -0.4059043202
 C          3.2026938376        5.8420362737       -0.9201764013
 C          3.0250096030        4.5316147840       -1.3330642995
 C          1.7833206977        3.9317957489       -1.2301951610
 C         -0.7309486750        2.6765221252       -0.1673175363
 C         -1.9714996508        2.0869697872       -0.0920321338
 C          0.0564126327       -2.0064932515       -1.0090699925
 C          1.2057225045       -2.6577974252       -0.7390531644
 O          1.6615013356       -3.5450465883       -1.6696792164
 C          2.7912379404       -4.2664350290       -1.3859463255
 C          3.1182590250       -5.2847018570       -2.2670555118
 C          4.2567339367       -6.0433516969       -2.0631448708
 C          5.0588775163       -5.7783326945       -0.9668824236
 C          4.7353444510       -4.7635310616       -0.0849784301
 C          3.5960073751       -3.9790629854       -0.2727121510
 H          4.7151756531        3.1432271782        2.6352192290
 H          3.7634438841        3.2418678880        1.1521425001
 H          3.2180801025        2.2222330341        2.4824379983
 H          5.2077289737        0.7567516924        2.1846132085
 H          5.7668964839        1.7709906359        0.8534111008
 H          3.6664506291        1.2733818818       -0.3952321106
 H          3.1473453672        0.2042409289        0.8965716912
 H          4.1087440292       -1.0110305656       -1.0307051117
 H          5.6214630780       -0.1304063770       -0.8588181646
 H          5.8601349371       -2.3607515206        0.0201684550
 H          6.0353235248       -1.1984877286        1.3326420810
 H          3.7503678039       -1.6325631473        2.0949825111
 H          4.6928053327       -3.1151234482        2.0809204074
 H          1.8375276882       -1.4894480318        2.3949734642
 H          0.1107818111        0.0271921536        1.6190278188
 H         -0.6726383248       -1.4991834322        1.9889074537
 H         -1.9771147223       -0.4397853212       -1.4951440157
 H         -2.0836152785        0.5432500189        1.4061813438
 H         -4.3358825168       -1.3339742777        0.7089178438
 H         -6.1448282822       -1.8954671407        2.1849918370
 H         -7.7384954577       -3.7289909838        2.5515962817
 H         -9.5300035393       -4.1619803747        0.9088915237
 H         -9.7077860240       -2.7510643606       -1.1089566104
 H         -8.1029303851       -0.9294279605       -1.4868341298
 H         -7.5509810078        1.1971421302       -0.5502333554
 H         -5.9799075818        3.0486172178       -0.9488238218
 H         -3.9091897479        4.6445735462       -1.2214209852
 H         -1.6906480296        5.7030423834       -1.3445366028
 H          0.0542105328        6.5070213700        0.1060982196
 H          2.2618867212        7.5712638461       -0.0788858048
 H          4.1737702919        6.3090549648       -0.9984465592
 H          3.8582319100        3.9760855303       -1.7400574393
 H          1.6461631442        2.9141241369       -1.5673478839
 H          0.1559172941        2.1349562368        0.1264411009
 H         -0.4233418719       -2.1810591131       -1.9607981866
 H          2.4676417001       -5.4570890778       -3.1106501453
 H          4.5105759262       -6.8322077835       -2.7538092693
 H          5.9480557328       -6.3652984391       -0.7918061998
 H          5.3777923089       -4.5902325529        0.7620899023
