  82
 
 C          9.4720476512        0.3852873054       -0.7950872906
 C          8.8612601900       -0.3754071005        0.3911179943
 C          9.5260486934       -1.7530090304        0.4683380717
 C          9.1566096360        0.3733413690        1.6993509591
 C          7.3536147331       -0.4617121852        0.2020737738
 C          6.6054693458        0.7102539656        0.1136079174
 C          5.2345488370        0.6843445918       -0.0489930874
 C          4.5737663541       -0.5302142717       -0.1352878943
 N          3.1518419643       -0.5642475083       -0.3000597277
 C          2.6538999482       -0.2122663549       -1.5470250606
 O          3.4289975818        0.1000397965       -2.4561305916
 C          1.2144649530       -0.2358565264       -1.6918623874
 C          0.6345605950        0.1112251616       -2.9273746155
 C         -0.7310010268        0.0804764099       -3.0814797906
 C         -1.5591344924       -0.2730916163       -2.0200074017
 C         -1.0193751456       -0.6012934446       -0.7681054207
 C         -1.8110525153       -0.9658154015        0.3533366538
 N         -3.2211213842       -0.9038614188        0.2721741132
 C         -3.9493978577       -2.0754724741        0.3014978420
 C         -3.2736935457       -3.3063740081        0.3605071943
 C         -3.9721183347       -4.4894030970        0.4222194214
 C         -5.3609327967       -4.4724516933        0.4043892584
 C         -6.0300849098       -3.2671262676        0.2951243830
 C         -5.3537492623       -2.0555733783        0.2331653421
 C         -6.1301776655       -0.7721334673        0.0562952315
 C         -6.9143524239       -0.8633461400       -1.2695860604
 C         -7.1072861530       -0.6127423763        1.2401794128
 C         -5.2305360708        0.4427072154        0.0185316416
 C         -5.8077030091        1.7020939281       -0.1243374240
 C         -5.0741041891        2.8721430447       -0.0998563133
 C         -3.7037299257        2.7799129011        0.1088952373
 C         -3.0940504490        1.5206460789        0.2453993336
 O         -1.7613531956        1.6443274123        0.4740580717
 C         -1.4844375036        2.9752482356        0.4858526593
 C         -0.2450153875        3.5581597171        0.6894720736
 C         -0.1886247050        4.9396020379        0.6564750201
 C         -1.3282015102        5.7112614658        0.4300968384
 C         -2.5637768507        5.1279421724        0.2291399249
 C         -2.6442347956        3.7412102586        0.2576176205
 C         -3.8318376498        0.3219915954        0.1675491712
 C         -1.2189153891       -1.3551209666        1.5643814758
 C          0.1425959116       -1.3506819453        1.7073368615
 C          0.9702503858       -0.9683625171        0.6284523573
 C          0.3952519022       -0.5999632224       -0.6060511355
 C          2.4021274174       -0.9460368228        0.8063890291
 O          2.9671727874       -1.2321315688        1.8680285683
 C          5.2961856819       -1.7070939733       -0.0567590801
 C          6.6692264495       -1.6680614665        0.1144929106
 H          9.0839148827        1.3978617750       -0.8590677864
 H         10.5532573215        0.4390196020       -0.6871241214
 H          9.2410066248       -0.1260730166       -1.7274738566
 H         10.5984946089       -1.6292849861        0.6047421793
 H          9.3657507043       -2.3155284619       -0.4484783704
 H          9.1429648095       -2.3246137929        1.3104515982
 H          8.7705557557        1.3883345027        1.6703922018
 H          8.6941740126       -0.1424578408        2.5386136436
 H         10.2301988987        0.4201157823        1.8688008999
 H          7.0927740022        1.6714525091        0.1751004926
 H          4.6713833867        1.6045371162       -0.1156505635
 H          1.2945361083        0.3944645093       -3.7331557010
 H         -1.1720556232        0.3433492355       -4.0319017454
 H         -2.6285267118       -0.2871310811       -2.1689431404
 H         -2.1959547249       -3.3190625213        0.3469606194
 H         -3.4364234635       -5.4245297352        0.4730971359
 H         -5.9166585304       -5.3958478266        0.4541177712
 H         -7.1072190670       -3.2775165465        0.2519609592
 H         -7.4901770623        0.0406325546       -1.4389501665
 H         -6.2259758710       -0.9962235073       -2.1014192357
 H         -7.5979975955       -1.7059533817       -1.2513957809
 H         -7.7731138374       -1.4672606290        1.3034889348
 H         -6.5516841836       -0.5372442786        2.1725561843
 H         -7.7103498627        0.2818111667        1.1248814268
 H         -6.8748550935        1.7741942537       -0.2544673602
 H         -5.5502108548        3.8314420414       -0.2194748970
 H          0.6303069108        2.9528313005        0.8641906497
 H          0.7604375849        5.4304304350        0.8096882431
 H         -1.2368999456        6.7866629673        0.4129448167
 H         -3.4426621722        5.7281811432        0.0546915699
 H         -1.8567294529       -1.6103538631        2.3981105655
 H          0.6176863919       -1.6176350853        2.6383974875
 H          4.7806763305       -2.6549305860       -0.1219128641
 H          7.1958188244       -2.6062762391        0.1750518337
