  111
 
 C          8.7274969850       -0.6887259035       -1.1273740238
 C          7.6998419801       -1.7526439673       -1.5230081510
 C          8.1771073422       -3.1032977439       -0.9708129930
 C          7.6388860355       -1.8089715727       -3.0559887024
 C          6.3112346143       -1.4552174783       -0.9765930476
 C          5.2686440206       -2.3478191978       -1.2567358427
 C          3.9811307788       -2.1685151836       -0.7925205901
 C          3.7211968025       -1.0577804787       -0.0056882068
 C          4.7445443259       -0.1267703160        0.2625789238
 C          6.0310425151       -0.3308337658       -0.2176191976
 C          4.1476128881        0.9251596180        1.0399375770
 C          4.6519761883        2.0846340862        1.6056638641
 C          3.8210713309        2.9171368438        2.3440156972
 C          4.3970930945        4.1911205556        2.9459084289
 C          5.5285295063        3.8198843663        3.9149471776
 C          3.3584331019        5.0081066591        3.7191346915
 C          4.9490001136        5.0724879604        1.8162061543
 C          2.4863447165        2.5420563895        2.5153494252
 C          1.9570323868        1.3895815845        1.9621340621
 C          2.7872154276        0.5855440960        1.2004976806
 N          2.5367634914       -0.6182672032        0.5625918397
 C          1.3129786499       -1.2823146550        0.5055970430
 C          1.2443172186       -2.6491465216        0.7558347419
 C          0.0264586360       -3.3156723729        0.6687888725
 C          0.0084657992       -4.7735517207        0.9469829965
 O          0.8352650759       -5.3055956840        1.6563592507
 C         -1.0797251597       -5.5654874153        0.3040453277
 C         -1.6663438590       -6.6161954957        1.0049642259
 C         -2.6572464235       -7.3551602519        0.3790974021
 N         -3.0626419881       -7.1248569778       -0.8578820831
 C         -2.4893140899       -6.1426203463       -1.5310003230
 C         -1.4985095823       -5.3291855326       -1.0034016597
 C         -1.1366064081       -2.6127398049        0.3708558859
 C         -1.0774317675       -1.2382001321        0.1566572758
 N         -2.2436798315       -0.5254656743       -0.1231536514
 C         -3.4411389713       -0.6319804900        0.5647450371
 C         -3.7702828062       -1.3789118141        1.6825159573
 C         -5.0532101604       -1.2710742994        2.1891876121
 C         -6.0190188156       -0.4340221296        1.6252102132
 C         -7.4320575177       -0.3252221954        2.1806519187
 C         -7.6847763641        1.1221781254        2.6261095491
 C         -8.4322334034       -0.7130455405        1.0821596299
 C         -7.6720351351       -1.2411007015        3.3838571006
 C         -5.6657561656        0.3348275692        0.5237481491
 C         -4.3884551863        0.2452656793       -0.0045026858
 C         -3.7273132217        0.9105258947       -1.0946977988
 C         -4.1442777407        1.8538325885       -2.0192491339
 C         -3.2666024602        2.3068053196       -2.9958074810
 C         -3.7444250429        3.3549509657       -3.9908485131
 C         -2.6634713829        3.7583242394       -4.9973425088
 C         -4.9395746077        2.7946395844       -4.7748628032
 C         -4.1712446836        4.6139582571       -3.2225149590
 C         -1.9768566348        1.7714305957       -3.0304609533
 C         -1.5348350822        0.8277771192       -2.1201665760
 C         -2.4084135681        0.4097963808       -1.1312963132
 C          0.1477719906       -0.5795428792        0.2093138464
 H          9.7004636217       -0.9553202486       -1.5354261068
 H          8.8241503873       -0.6216969830       -0.0461908397
 H          8.4538674055        0.2865229686       -1.5235253495
 H          7.5180728814       -3.9119478881       -1.2739578337
 H          8.2038233073       -3.0756910657        0.1165686507
 H          9.1779278566       -3.3252350016       -1.3355097546
 H          8.6297081346       -1.9983830567       -3.4637165864
 H          6.9746122204       -2.5973682482       -3.3986090353
 H          7.2772111797       -0.8623901748       -3.4525371705
 H          5.4657989305       -3.2182986899       -1.8635238172
 H          3.2058524823       -2.8745573866       -1.0495385047
 H          6.7883230310        0.4002027090        0.0110863884
 H          5.6954446415        2.3211407189        1.4661475710
 H          5.9436646190        4.7173011746        4.3690495002
 H          6.3309860346        3.2944983915        3.4048082785
 H          5.1492367500        3.1760821940        4.7058664699
 H          2.5386138011        5.3124845483        3.0724885874
 H          2.9608549007        4.4431496584        4.5590779457
 H          3.8268757827        5.9080109926        4.1129818822
 H          5.3538906423        5.9962711765        2.2243409624
 H          4.1562565011        5.3232732358        1.1143025786
 H          5.7400695621        4.5673764723        1.2691932114
 H          1.8252699947        3.1580484833        3.1020337482
 H          0.9250731942        1.1284098193        2.1425715235
 H          2.1270571103       -3.2047486115        1.0313859387
 H         -1.3490256188       -6.8339456291        2.0128927115
 H         -3.1486848655       -8.1744612992        0.8869675147
 H         -2.8457287732       -5.9997277506       -2.5427831436
 H         -1.0509352512       -4.5469586520       -1.5974490291
 H         -2.0873152210       -3.1192286971        0.3113037362
 H         -3.0494799038       -2.0217890144        2.1655708081
 H         -5.2939887340       -1.8622535730        3.0569956909
 H         -8.6855514222        1.2175435159        3.0422158563
 H         -7.5951951278        1.8146258608        1.7937817999
 H         -6.9645091749        1.4116227549        3.3885994984
 H         -8.3534796603       -0.0534930149        0.2225258564
 H         -8.2463666575       -1.7316492284        0.7477357848
 H         -9.4496213292       -0.6549669247        1.4634179146
 H         -8.6986508259       -1.1261972944        3.7261382089
 H         -7.0134396074       -0.9843436454        4.2103700012
 H         -7.5224379408       -2.2849735973        3.1177414211
 H         -6.3717764063        1.0120589187        0.0685709368
 H         -5.1570939117        2.2222699961       -1.9672391486
 H         -3.0618700847        4.5135633932       -5.6720246728
 H         -2.3480657234        2.9074548122       -5.5968022755
 H         -1.7975772936        4.1820929647       -4.4938679796
 H         -4.6503691580        1.8888390211       -5.3038550099
 H         -5.7684974940        2.5530306174       -4.1155159130
 H         -5.2859087784        3.5246328862       -5.5035470415
 H         -3.3338351549        5.0053033860       -2.6484501974
 H         -4.5034953005        5.3830222890       -3.9167523576
 H         -4.9852035973        4.4023293134       -2.5348457148
 H         -1.2823864435        2.0893743653       -3.7902194925
 H         -0.5355743175        0.4265018165       -2.1995733176
 H          0.1929808487        0.4824921879        0.0266109567
