94
 xtb: 6.7.1 (edcfbbe)
C            0.80563184082242       -5.63715306054038       -2.33915569938266
C            0.11036034456536       -4.53460380189092       -1.60773817489744
C            0.85823651931019       -3.57114822164872       -0.90459718938427
C            0.24096668022641       -2.54381077161492       -0.24211224019040
C           -1.16077686092396       -2.42273496334163       -0.24772596240025
N           -1.75990618830261       -1.35890987477228        0.39576583637847
C           -3.03149806698710       -0.94359932252144        0.07275406402173
C           -3.49082676012694       -0.95067199418819       -1.28412013889080
C           -4.73738730931295       -0.47617101609407       -1.58980584339550
C           -5.60281336934336        0.01273317801227       -0.60386194974868
C           -6.96364410795772        0.53043593762772       -0.93497956975968
C           -5.14782980836487        0.01707047096749        0.73805513810674
C           -3.90057710855738       -0.42936625595699        1.06620180559032
C           -1.14419838813065       -0.82661754013455        1.54756248428693
C           -0.87112271407590       -1.77187360283411        2.56128106121158
C           -0.53881441027908       -1.39283312952990        3.83157728759759
C           -0.46632708446474       -0.02764017137639        4.13366117147339
C           -0.63025650280736        0.90072533454204        3.11781008500313
C           -0.92372238445614        0.55822478244459        1.80358215400857
C           -0.87049900324697        1.69060234224030        0.77099340001356
C            0.42585330503433        2.45305597265040        1.07523333641960
C            0.37722502110408        3.61747859431481        1.85474071078042
C            1.49802565559172        4.29300282933194        2.28762387951384
C            2.76121711210627        3.81405365004369        1.97565637905458
C            2.84857999201489        2.67138005856618        1.20753419863965
C            1.71980773773393        2.00264877705206        0.74172238565443
N            2.00038931393489        0.85668432019508       -0.07250327426273
C            2.12324624223955        1.05870127911890       -1.45615045140078
C            1.86762009468230        0.01211484618855       -2.34426178509435
C            1.95226411640948        0.21128971912782       -3.70806644647755
C            2.28407006243881        1.45169196007524       -4.23504367873812
C            2.36847120445396        1.68875359449634       -5.71229541151658
C            2.52518179100085        2.49508758978415       -3.34780550647233
C            2.44556885547980        2.30946181877154       -1.98293719893614
C            2.64818379507445       -0.20409970636911        0.55466885956775
C            2.38357688145382       -0.46834142990199        1.90267185520912
C            2.97067079770865       -1.54062491772192        2.53840926761677
C            3.85368619755841       -2.38220752006910        1.87070282794053
C            4.45489020055235       -3.56806876974979        2.56089301876872
C            4.15156903857353       -2.09016896802530        0.54599870225658
C            3.57126564811852       -1.01985824938182       -0.10486624370174
C           -0.91839229472857        1.23147605370358       -0.69081641069638
C           -0.86211887080046        2.42757693419708       -1.63614507679117
C           -2.12762980461892        3.25849879651215       -1.45748661026147
C           -2.22286662699323        3.72912048786428       -0.01084501013115
C           -2.14614261590231        2.54951774845525        0.95783069010750
C           -1.91815614529009       -3.41520761840563       -0.91510187169850
C           -1.28058575622160       -4.43428470413307       -1.58135988904429
H            1.45882496278489       -6.19050018202179       -1.66580208838226
H            1.42962954790575       -5.22916871355375       -3.13739044004056
H            0.09036102054784       -6.32646146593868       -2.77972234510506
H            1.93632130799807       -3.64201549553217       -0.89074870920637
H            0.82245977717608       -1.81014185109235        0.29425849966625
H           -2.81727677295264       -1.27709324081403       -2.06284931093096
H           -5.05961600012394       -0.46569269227367       -2.62310927480411
H           -7.17539923345121        0.42095333580278       -1.99745512180777
H           -7.04629699074137        1.58862745136920       -0.67538051759491
H           -7.72610223712942       -0.00361954268082       -0.37057978309906
H           -5.81065040134402        0.38059532395076        1.50859864998960
H           -3.57177740914029       -0.43833919465960        2.09410423953757
H           -0.99342834735941       -2.81779518124601        2.31448863200847
H           -0.36059852477773       -2.13453052178992        4.59540356009664
H           -0.24867309146593        0.30026193678859        5.13773515102146
H           -0.48682437311646        1.94125585780533        3.36502876666148
H           -0.57592863606708        4.01766134272382        2.15658042123606
H            1.38660143769576        5.18798793191897        2.88285253909510
H            3.65235183748163        4.31737810683105        2.31919798727553
H            3.81835552660683        2.26972126435335        0.94393029033534
H            1.58613920167162       -0.95911233716963       -1.96186573078835
H            1.74766173878708       -0.61583844571095       -4.37217257782274
H            2.39520720392182        0.72030906873585       -6.25086566086180
H            1.47158726766008        2.23406750571740       -6.05364843281852
H            3.24882501720495        2.26786781016869       -5.97006067348776
H            2.78396866606845        3.47072479261784       -3.73406283793609
H            2.64331043343818        3.13705383789612       -1.31807012370532
H            1.70341451493848        0.16755396110515        2.44493655795949
H            2.73307777714114       -1.72978912479844        3.57504572174795
H            5.34965663867992       -3.90856989385503        2.04251530673358
H            3.73989016369106       -4.39141492174347        2.58062914243097
H            4.71415446026216       -3.32643888833511        3.58904533823437
H            4.86307779481009       -2.70461159616336        0.01092666585496
H            3.84977546244869       -0.80505024893371       -1.12552597763217
H           -0.13029347823475        0.51930950053291       -0.90761960559049
H           -1.87092259193301        0.74486890404070       -0.87902775942445
H            0.01249555734532        3.04719370867768       -1.42562645249124
H           -0.78113469710764        2.07520349702931       -2.66527114677258
H           -2.11662049221119        4.12153758458351       -2.12713677479688
H           -3.00023565609157        2.65008605255620       -1.70374938058471
H           -1.40970610666816        4.43269866461976        0.18037615230396
H           -3.16597683540399        4.25804402130839        0.15109449770760
H           -2.24125655577605        2.89476981994289        1.98945816882819
H           -2.99976300102198        1.89402221015246        0.77246959513035
H           -2.99512678077893       -3.38823668735771       -0.85752912095786
H           -1.87239013552636       -5.18671939039479       -2.08310973805539
