126
 xtb: 6.7.1 (edcfbbe)
C           11.07155889829540        0.56807040195178        3.02805732482116
C            9.88158772823055        0.81954805349514        2.14876568611385
C            8.62417017676198        0.34902546982583        2.54454604071874
C            7.49081693912727        0.54523748841696        1.78101167478276
C            7.62928553263726        1.22423839333772        0.57885892233480
C            8.88203528729589        1.73714023617631        0.17521742373083
C           10.00600020207522        1.52359032497030        0.96369988548341
C            8.65574743907522        2.44149520313209       -1.05672375387327
C            9.48355177867889        3.13729315428409       -1.92944556228064
C            8.94220556458208        3.71528600044804       -3.06447173333870
C            9.80291645070039        4.47447596132633       -4.03166660737564
C            7.57219947796957        3.58482575421721       -3.32137257641216
C            6.72675161438839        2.89624112949251       -2.47472075141579
C            7.27505321492635        2.33033195168899       -1.33304654447391
N            6.66944727627080        1.57510637739229       -0.34843237674410
C            5.30616842481702        1.24308066712698       -0.29827633133359
C            4.36514344128215        2.26657099751986       -0.20289159666016
C            3.01927039632098        1.97735142189353       -0.14247395248606
C            2.59474937672341        0.64964008328352       -0.17671074978069
C            1.17173581674837        0.32550015218584       -0.10028736730725
N            0.82269080302441       -0.95895228836584       -0.10256046170096
C           -0.48261635024556       -1.20802214781978       -0.02431159973642
C           -0.91628715389237       -2.60339813090085       -0.02461483638433
C           -2.26797305939257       -2.92228375808948        0.10188476110842
C           -2.66041265282819       -4.24266885185202        0.10994947381388
C           -1.71907017650462       -5.26392330391182       -0.01090855871835
N           -2.15931254348468       -6.59629859239621        0.00948733640552
C           -1.82086510533299       -7.55608828389391        0.94172062127155
C           -1.03162087558333       -7.44649877515969        2.07757075188183
C           -0.87312366678450       -8.57036139287455        2.86346207022803
C           -1.48750371696527       -9.78951699418145        2.55506299544797
C           -1.27144843307735      -10.97146513564888        3.45442453198310
C           -2.30152462200437       -9.88159958194612        1.43950431789746
C           -2.47899342249958       -8.76649248766619        0.62981441819318
C           -3.26429886429983       -8.51203318611231       -0.54661618541911
C           -4.10762300904779       -9.29578310241783       -1.32492810779286
C           -4.72710941240131       -8.73712044012108       -2.42943500216620
C           -5.68424392739928       -9.53423045212732       -3.26733659596660
C           -4.48784515242106       -7.39650065241982       -2.75255448654505
C           -3.65266586418071       -6.59520426230721       -2.00034074148310
C           -3.04970236294707       -7.15756517890527       -0.88484172739909
C           -0.36018166943239       -4.96055679817519       -0.17459055477048
C            0.65936163925250       -6.03595343574536       -0.39297663289960
C            0.01693118516899       -3.62775221482244       -0.16745809462842
N           -1.41773633410754       -0.26426225596629        0.05516170723985
C           -0.97938100837543        0.99242630982647        0.04759349623891
C           -1.97006343821867        2.06345344150354        0.12938513884649
C           -3.32670591644242        1.76232554926586        0.24516777339638
C           -4.24846664373065        2.78283609902773        0.32806840692820
C           -3.83757010825957        4.11438888198371        0.29437442616814
N           -4.80706924842387        5.12527140381254        0.38402561356932
C           -5.84683461602616        5.31666285634827       -0.50450080890264
C           -6.15239147725793        4.62600867967673       -1.66814620282542
C           -7.24452599833009        5.04854167457274       -2.39918622965366
C           -8.02814068162270        6.14044658647643       -2.00749559509853
C           -9.20500368482801        6.54044285218924       -2.84875810050641
C           -7.70739119405801        6.83357588388032       -0.85329107938822
C           -6.61569468381773        6.42840389381096       -0.09503350873158
C           -6.01802182513129        6.91127812948706        1.11936431281803
C           -6.33369189836038        7.94003735760014        1.99831041226553
C           -5.56238908870696        8.12606678151538        3.13236932782758
C           -5.86458625658828        9.23142570162598        4.10149198853162
C           -4.48974446398432        7.26392924481610        3.38770564789497
C           -4.15348322515350        6.23349763085572        2.53269496978710
C           -4.91014749079025        6.07470747842034        1.38053641514199
C           -2.48091212395863        4.43520583690657        0.14490426973369
C           -2.02567732373397        5.85659863986903        0.01958082941673
C           -1.56781137562280        3.39611020451926        0.07489314369296
N            0.30510524677135        1.33321101804441       -0.02988197424954
C            3.53950517261617       -0.36755751634922       -0.29469373471834
C            4.89557044956195       -0.09564736351508       -0.36630926533808
C            5.88609039813953       -1.20390629100820       -0.54946584941240
H           11.97762637857425        0.96715323970006        2.57918955504809
H           11.20623903121310       -0.50199743463017        3.18963050172280
H           10.93047164867076        1.03563104966804        4.00129805071445
H            8.54101517656107       -0.18019009833480        3.48334719445081
H            6.52542488332242        0.19746175522504        2.11875167905434
H           10.96530103094861        1.91246912226434        0.65504169899517
H           10.54005337918061        3.22216056823521       -1.72154182207096
H            9.43167544898303        5.49151905495060       -4.15503489824810
H           10.83153961965448        4.51975387190335       -3.68361041821132
H            9.78844898012242        3.99476760829715       -5.01032947865381
H            7.16690834949567        4.03805493944292       -4.21519011529598
H            5.67339884665845        2.79966560623029       -2.69478002938881
H            4.70826487543949        3.28999800455964       -0.16616596078795
H            2.28430760296334        2.76175721298690       -0.05883913367127
H           -2.98911157716324       -2.12588034811944        0.19981580065308
H           -3.70379374901780       -4.50324775665922        0.21750147558853
H           -0.57200729629086       -6.50524714295725        2.34874504381280
H           -0.26033624417285       -8.50451139269439        3.75242046662999
H           -1.75764872776877      -11.85410660975723        3.05912725934374
H           -0.20767059097773      -11.17276216953163        3.56922548110391
H           -1.67688154877127      -10.76732024725223        4.45021710015054
H           -2.80310337800476      -10.80697773264041        1.20547372630531
H           -4.27655403702544      -10.33226147153579       -1.06311556316855
H           -6.69805543149494       -9.18521647445148       -3.14930972873304
H           -5.62826987864401      -10.60632778294398       -2.99891954425592
H           -5.40201531984807       -9.44614296328563       -4.34103560716923
H           -4.97488963277882       -6.98376686164514       -3.62400864513627
H           -3.47422642006340       -5.56837646834450       -2.27566664312203
H            1.51280308175679       -5.63663173257541       -0.93513821721501
H            0.23187141751601       -6.86121726351054       -0.96155901633939
H            1.01273092126490       -6.43508275049606        0.55478957917624
H            1.05419473852285       -3.35975028785345       -0.29300008586792
H           -3.63494306214595        0.72997593000442        0.27614931018882
H           -5.30134489270159        2.56386832783650        0.42925385043058
H           -5.55448916486743        3.78795298514037       -1.99224234106336
H           -7.50510681256256        4.52418893106837       -3.30619475791395
H           -9.67491329257694        7.44053006840745       -2.45612506761507
H           -9.94671690971499        5.74290517924822       -2.86551667708281
H           -8.89418775737351        6.72925841324038       -3.87453124742175
H           -8.29678952476133        7.68449058857415       -0.54089297006071
H           -7.17887238751515        8.58235753445256        1.80028127664638
H           -6.75646141774970        9.77608464759694        3.80598614591888
H           -5.03025038555823        9.93144105287621        4.15096935412008
H           -6.01823773214578        8.82943640075944        5.10428075672585
H           -3.91174693630281        7.40825109102274        4.29112249466399
H           -3.33974924497223        5.56170917087362        2.76514744168968
H           -1.91407579568879        6.31850925722064        1.00118257392965
H           -1.06514935211055        5.89957932244384       -0.48655561099639
H           -2.75094676386292        6.44438113492130       -0.53922368827707
H           -0.51609465336314        3.60849020619165       -0.04182440944569
H            3.18940244095643       -1.38728852959767       -0.34500356388502
H            5.39576643822041       -2.08136676451108       -0.96396144187413
H            6.33860773702594       -1.48234024101351        0.40108029550700
H            6.68781547306343       -0.89490855286892       -1.21788579391653
