99

C      0.001232   -5.657242   -0.232478
C      0.005079   -4.165523   -0.120270
N      1.194945   -3.548035   -0.095099
C      1.189972   -2.202009   -0.030120
N      2.430081   -1.478366    0.005337
C      2.937691   -1.011730    1.263545
C      2.382808   -1.468725    2.483273
C      2.818955   -0.993676    3.720185
C      3.821111   -0.040626    3.771450
C      4.395365    0.414047    2.586913
C      3.989601   -0.079318    1.319447
C      4.674540    0.453905    0.022944
C      4.246737    1.957247   -0.229840
C      3.002613    2.449167    0.224708
C      2.590411    3.759431   -0.042239
C      3.398227    4.609445   -0.789834
C      4.614574    4.145993   -1.279376
C      5.026244    2.835994   -1.013834
C      6.227660    0.226515    0.243180
C      6.776081   -1.066038    0.071030
C      8.132516   -1.319122    0.289712
C      8.972745   -0.295564    0.714150
C      8.453120    0.976817    0.934578
C      7.095076    1.231989    0.715508
C      4.222066   -0.328858   -1.250438
C      4.902758   -0.129587   -2.480614
C      4.506563   -0.764839   -3.654333
C      3.420312   -1.620545   -3.628842
C      2.744636   -1.841774   -2.427853
C      3.128373   -1.212953   -1.218998
C      0.011733   -1.479430    0.002596
C     -1.170287   -2.194832   -0.034636
N     -2.407441   -1.465770    0.003620
C     -2.900690   -0.981057    1.261631
C     -2.315782   -1.401687    2.480464
C     -2.742738   -0.913327    3.715827
C     -3.768418    0.014309    3.766815
C     -4.371359    0.434769    2.584159
C     -3.970941   -0.068601    1.318201
C     -4.675687    0.439446    0.022358
C     -6.225389    0.216773    0.268073
C     -7.083116    1.232604    0.737616
C     -8.438771    0.987492    0.978442
C     -8.965030   -0.285749    0.781865
C     -8.134655   -1.319740    0.363722
C     -6.780023   -1.074874    0.122316
C     -4.258453    1.941235   -0.260080
C     -3.021168    2.454298    0.187645
C     -2.628275    3.768629   -0.090085
C     -3.447629    4.599554   -0.846045
C     -4.653493    4.112603   -1.336449
C     -5.047426    2.799753   -1.056402
C     -4.236563   -0.363665   -1.242592
C     -4.940905   -0.198104   -2.463939
C     -4.557561   -0.853684   -3.630760
C     -3.456483   -1.690519   -3.609341
C     -2.756289   -1.877008   -2.416939
C     -3.129754   -1.232244   -1.213419
N     -1.181337   -3.540996   -0.101790
H      0.864173   -6.084601    0.287312
H      0.044448   -5.946194   -1.286726
H     -0.907130   -6.076338    0.210949
H      1.602398   -2.226225    2.491337
H      2.372686   -1.371763    4.635760
H      4.163717    0.347172    4.727561
H      5.173695    1.169178    2.660493
H      2.321682    1.816855    0.790296
H      1.629277    4.109262    0.327189
H      3.075014    5.625331   -1.004342
H      5.241855    4.799100   -1.881168
H      5.973953    2.510730   -1.438872
H      6.142274   -1.898850   -0.231350
H      8.525273   -2.322799    0.139533
H     10.027356   -0.490170    0.885894
H      9.103158    1.771112    1.292597
H      6.725958    2.229935    0.943770
H      5.767634    0.527253   -2.531526
H      5.047319   -0.587587   -4.579669
H      3.099121   -2.126315   -4.535454
H      1.911673   -2.540203   -2.454346
H      0.014763   -0.398364    0.047697
H     -1.516602   -2.139502    2.490982
H     -2.272145   -1.261051    4.631166
H     -4.106191    0.409205    4.721596
H     -5.165584    1.174226    2.659968
H     -6.706843    2.231903    0.945666
H     -9.080378    1.791743    1.331369
H    -10.017752   -0.476045    0.972259
H     -8.533876   -2.322500    0.231315
H     -6.154373   -1.914615   -0.176489
H     -2.331106    1.838020    0.760692
H     -1.673822    4.135292    0.279038
H     -3.141117    5.618948   -1.066059
H     -5.289163    4.750364   -1.945818
H     -5.991225    2.459835   -1.477033
H     -5.816190    0.445660   -2.512775
H     -5.118489   -0.705469   -4.549081
H     -3.141777   -2.207243   -4.512541
H     -1.911827   -2.561488   -2.445856
