  94
 
 C         -3.0851842675        0.8587334607       -0.0915337314
 C         -4.2617900366        1.4988300883       -0.1857044898
 C         -5.5768817209        0.9042785743       -0.0873529496
 C         -5.7989174583       -0.4543237227        0.1629679327
 C         -7.0728429346       -0.9687819960        0.2408156465
 C         -8.1877188537       -0.1452887874        0.0665582095
 N         -9.4789707128       -0.6698093610        0.1376532381
 C        -10.5172517214        0.0895998753        0.6902528730
 C        -11.7995580195        0.0356716662        0.1444661901
 C        -12.8227015514        0.7810884296        0.6969895051
 C        -12.5857359671        1.5954876081        1.7922779950
 C        -11.3128752900        1.6555901793        2.3357112959
 C        -10.2848801342        0.9077593641        1.7955992171
 C         -9.7410536589       -1.9573595490       -0.3458571714
 C         -9.1067617263       -2.4236871163       -1.4971621483
 C         -9.3666848294       -3.6959816666       -1.9676707811
 C        -10.2651164805       -4.5187154863       -1.3081059665
 C        -10.9017547631       -4.0583271405       -0.1671519916
 C        -10.6422748579       -2.7907244145        0.3162383268
 C         -7.9801837569        1.2130597784       -0.1804532473
 C         -6.7026353154        1.7200627365       -0.2516162502
 C         -1.7694124725        1.4528959083       -0.2000126142
 C         -1.5483653887        2.8178487097       -0.4092310845
 C         -0.2711596352        3.3245679342       -0.5085341305
 C          0.8447243053        2.4930426145       -0.4109999372
 C          2.2030066408        3.0329778252       -0.5288453045
 C          3.1902957215        2.3347227449       -1.2249739643
 C          4.4690862764        2.8360027737       -1.3369642046
 C          4.8127918994        4.0545529182       -0.7499406300
 C          6.1508732272        4.6224604453       -0.8792569125
 C          7.3145126596        3.9640658926       -0.8671864725
 C          7.5292215582        2.5500940609       -0.5793304153
 C          6.8018050380        1.8737011095        0.4015347449
 C          7.0438174352        0.5454988301        0.6752639236
 C          8.0283214482       -0.1554315397       -0.0235890323
 N          8.2726809503       -1.5053733974        0.2484605675
 C          8.2080966857       -1.9769575480        1.5640446520
 C          8.6481574860       -1.1821032348        2.6225051781
 C          8.5804286155       -1.6506288973        3.9199593179
 C          8.0837995605       -2.9164321574        4.1847385416
 C          7.6486443393       -3.7113437704        3.1369776740
 C          7.7038503913       -3.2485783655        1.8368070674
 C          8.5904850636       -2.3795559756       -0.7967117985
 C          7.9785292457       -2.2416868134       -2.0426703583
 C          8.2973178064       -3.1028474204       -3.0742523678
 C          9.2206589965       -4.1174796445       -2.8820212363
 C          9.8286169152       -4.2613489332       -1.6455782512
 C          9.5230762266       -3.3998311347       -0.6101383016
 C          8.7721453191        0.5189028250       -0.9922296613
 C          8.5303117221        1.8503327299       -1.2542777047
 C          3.8188875233        4.7647866915       -0.0764809340
 C          2.5402186073        4.2602415175        0.0397594560
 C          0.6314665079        1.1308310506       -0.2018636538
 C         -0.6456038693        0.6256722565       -0.0952497323
 H         -3.0761165568       -0.2103127192        0.0768048836
 H         -4.2707370919        2.5670478597       -0.3590906808
 H         -4.9623738223       -1.1195170867        0.3102393371
 H         -7.2193317414       -2.0196549537        0.4447440324
 H        -11.9845425080       -0.5915544982       -0.7153905892
 H        -13.8107444497        0.7317684587        0.2633154265
 H        -13.3872636939        2.1787800383        2.2194451650
 H        -11.1200927967        2.2832432464        3.1934044852
 H         -9.2956118804        0.9479080922        2.2276473444
 H         -8.4138124312       -1.7801037301       -2.0192185971
 H         -8.8700957643       -4.0440313148       -2.8615427108
 H        -10.4679108658       -5.5112686738       -1.6807382756
 H        -11.6002200876       -4.6944624199        0.3564879632
 H        -11.1327739141       -2.4374426607        1.2115463720
 H         -8.8311423148        1.8631863137       -0.3230577999
 H         -6.5651709122        2.7736639468       -0.4509184873
 H         -2.3861253405        3.4923325864       -0.4985303175
 H         -0.1306590137        4.3806710405       -0.6893913245
 H          2.9403569574        1.4001683620       -1.7060736142
 H          5.2131938794        2.2906908940       -1.8982372245
 H          6.1722217790        5.6974983991       -1.0164453576
 H          8.2199692782        4.5222850870       -1.0765284080
 H          6.0419236212        2.4015211630        0.9576784641
 H          6.4693161868        0.0367698816        1.4356048014
 H          9.0457938189       -0.1986668923        2.4183146142
 H          8.9269036573       -1.0252797895        4.7297270322
 H          8.0362562775       -3.2805938708        5.1997779135
 H          7.2545432187       -4.6976164363        3.3340024459
 H          7.3543242338       -3.8670330568        1.0229677312
 H          7.2504416643       -1.4577609151       -2.1920505892
 H          7.8139775069       -2.9860132391       -4.0332226133
 H          9.4646491026       -4.7908942935       -3.6895873750
 H         10.5542050021       -5.0458709704       -1.4878768784
 H         10.0067468804       -3.5081005956        0.3497051186
 H          9.5475858732       -0.0083322112       -1.5288515416
 H          9.1202124283        2.3604819572       -2.0028214108
 H          4.0633573254        5.7160007725        0.3759375013
 H          1.7953581558        4.8141697622        0.5927589705
 H          1.4795327254        0.4688604250       -0.1008106395
 H         -0.7856571370       -0.4333004852        0.0736407090
