  46
 
 O          2.7015835588       -0.6524864985        2.6025043831
 C          2.9348895207       -0.6350783919        1.4124061459
 C          4.0457586432        0.1015613210        0.7590399496
 C          4.9506607801        0.9317089275        1.4067363711
 C          5.9563907974        1.5288195851        0.6599142094
 C          6.0590700966        1.3029593053       -0.7053657356
 C          5.1538200246        0.4726037060       -1.3597763975
 C          4.1642993076       -0.1152908316       -0.6060853916
 S          2.8338652054       -1.1764738120       -1.1121476091
 O          1.8858796945       -0.4769708278       -1.9303142846
 O          3.2374980480       -2.4749060078       -1.5627227684
 N          2.2226531714       -1.3201306006        0.4729488962
 C          1.1819617414       -2.2666457043        0.8235022789
 C         -0.2019786976       -1.6201224943        0.8993831113
 C         -0.8144760467       -1.3617226128       -0.4859271916
 N         -1.9412084634       -0.4735855623       -0.4046092550
 C         -1.8715007162        0.8982409825       -0.4672813033
 C         -0.7759459887        1.7172846018       -0.7089381188
 C         -0.9854516534        3.0831521459       -0.7271457452
 C         -2.2493683695        3.6303657308       -0.5103063919
 C         -3.3434361115        2.8213664695       -0.2761923170
 C         -3.1601366990        1.4443463865       -0.2526926626
 C         -4.0414197841        0.3302968542       -0.0435080314
 C         -5.4035421269        0.2195428575        0.2061493184
 C         -5.9484196581       -1.0395571186        0.3622762661
 C         -5.1523319975       -2.1802747381        0.2751624000
 C         -3.7952752272       -2.0961906606        0.0291565807
 C         -3.2399610278       -0.8339575624       -0.1343563596
 H          4.8557985147        1.0945956913        2.4690653458
 H          6.6671454548        2.1773350488        1.1483607239
 H          6.8482037086        1.7741136518       -1.2703675262
 H          5.2184517745        0.2884050048       -2.4199648856
 H          1.4449948287       -2.6858996660        1.7999226784
 H          1.2099712481       -3.0546081985        0.0666915542
 H         -0.1154440254       -0.6741461224        1.4385852240
 H         -0.8614668279       -2.2716317820        1.4747893996
 H         -1.1384553368       -2.3059916806       -0.9323219586
 H         -0.0682653446       -0.9139206526       -1.1456527094
 H          0.2055296491        1.3054911230       -0.8930453517
 H         -0.1504573288        3.7432227861       -0.9137650408
 H         -2.3700959023        4.7037496435       -0.5304608143
 H         -4.3228433550        3.2465538441       -0.1139876148
 H         -6.0209750914        1.1029779456        0.2744616037
 H         -7.0057735092       -1.1474077674        0.5555564969
 H         -5.6073241046       -3.1518334381        0.4038586112
 H         -3.1928723743       -2.9898638814       -0.0335370835
