80

C      7.265378   -2.990422   -0.723619
C      6.405364   -2.769544   -1.796504
C      5.241906   -2.017477   -1.616360
C      4.921453   -1.471839   -0.361763
C      3.687981   -0.684079   -0.176657
C      2.447521   -1.330719   -0.348421
C      1.235238   -0.677054   -0.179777
N      0.088909   -1.345732   -0.371787
C     -1.095086   -0.679989   -0.210686
N     -2.295375   -1.398314   -0.560928
C     -2.438630   -2.771760   -0.126349
C     -3.061485   -3.740944   -0.935757
C     -3.203120   -5.065243   -0.508371
C     -2.718384   -5.452134    0.736994
C     -2.085687   -4.518076    1.551154
C     -1.944245   -3.194569    1.121633
C     -3.222772   -0.825003   -1.505358
C     -2.770840   -0.087276   -2.613052
C     -3.673508    0.469406   -3.523369
C     -5.043393    0.293302   -3.345242
C     -5.512763   -0.443759   -2.261542
C     -4.610001   -1.000325   -1.352326
C     -1.095097    0.679975    0.210964
N     -2.295405    1.398315    0.561115
C     -2.438591    2.771723    0.126408
C     -1.944470    3.194300   -1.121752
C     -2.085884    4.517760   -1.551427
C     -2.718267    5.452002   -0.737235
C     -3.202708    5.065339    0.508317
C     -3.061111    3.741083    0.935854
C     -3.222961    0.825059    1.505432
C     -2.771260    0.086912    2.612943
C     -3.674098   -0.469775    3.523097
C     -5.043934   -0.293234    3.345017
C     -5.513077    0.444266    2.261519
C     -4.610147    1.000811    1.352455
N      0.088892    1.345736    0.372070
C      1.235236    0.677089    0.180028
C      2.447523    1.330775    0.348618
C      3.687993    0.684161    0.176802
C      4.921491    1.471907    0.361876
C      5.241747    2.017968    1.616342
C      6.405242    2.769993    1.796453
C      7.265505    2.990390    0.723670
C      6.962596    2.461719   -0.528699
C      5.798157    1.711083   -0.708432
C      5.797872   -1.711459    0.708642
C      6.962264   -2.462162    0.528879
H      8.171513   -3.573964   -0.863036
H      6.639151   -3.181342   -2.774720
H      4.584876   -1.852395   -2.467943
H      2.422926   -2.386804   -0.615706
H     -3.423777   -3.481512   -1.927364
H     -3.684877   -5.792972   -1.155834
H     -2.825090   -6.481381    1.068329
H     -1.696459   -4.815516    2.521031
H     -1.443632   -2.492674    1.781700
H     -1.706199    0.041556   -2.791420
H     -3.304378    1.037301   -4.373263
H     -5.744544    0.728928   -4.052167
H     -6.580728   -0.582561   -2.117116
H     -4.995971   -1.554869   -0.499368
H     -1.444104    2.492253   -1.781843
H     -1.696890    4.815017   -2.521449
H     -2.824965    6.481206   -1.068710
H     -3.684220    5.793208    1.155801
H     -3.423164    3.481811    1.927593
H     -1.706659   -0.042280    2.791295
H     -3.305140   -1.038025    4.372829
H     -5.745220   -0.728874    4.051803
H     -6.581000    0.583416    2.117118
H     -4.995977    1.555669    0.499635
H      2.422916    2.386861    0.615896
H      4.584540    1.853266    2.467861
H      6.638872    3.182122    2.774566
H      8.171682    3.573877    0.863058
H      7.632030    2.631146   -1.367870
H      5.578740    1.308499   -1.695089
H      5.578276   -1.309184    1.695384
H      7.631502   -2.631972    1.368129
