  72
 
 C          3.3754615444        3.5204847559       -1.0766199419
 C          2.2279510228        2.6414165337       -0.6804170787
 C          2.0242334383        2.2687803737        0.6362861533
 C          0.9655959798        1.4498480676        1.0061304891
 C          0.7697284125        1.1999027163        2.4745240986
 C          0.0671197892        0.9649564971        0.0434471162
 B         -1.0716165012       -0.0578041470        0.3938644809
 C         -0.7271274791       -1.3878630558        1.1667025735
 C         -1.7143608337       -1.9385338948        1.9974690000
 C         -1.4905312713       -3.0508900710        2.7851263106
 C         -0.2546517336       -3.6765389477        2.7564980577
 C          0.7411795626       -3.1723837935        1.9407986696
 C          0.5195769628       -2.0408570894        1.1619361478
 N          1.6076645681       -1.5729124943        0.3922971107
 C          2.8012048609       -1.1353709279        0.9247996549
 C          3.1991022372       -1.0554414527        2.2520713247
 C          4.4642795955       -0.5692460907        2.5199578250
 C          5.3210437928       -0.1685058277        1.4962524840
 C          4.9341873340       -0.2538630743        0.1737057875
 C          3.6683283444       -0.7432637280       -0.1210389397
 C          2.9681420195       -1.0052975654       -1.3453868514
 C          3.3115284736       -0.8953857493       -2.6863499433
 C          2.4135397420       -1.3330518588       -3.6393318535
 C          1.1926255161       -1.8918839222       -3.2678776251
 C          0.8242554455       -2.0003658285       -1.9405711746
 C          1.7071912560       -1.5320097654       -0.9794624381
 C         -2.5844653246        0.2440493779        0.0744263768
 C         -3.1764342950        1.4372377951        0.5364205266
 C         -2.3883061734        2.4283372037        1.3425464300
 C         -4.5131474361        1.7052156936        0.2949060752
 C         -5.3183766105        0.8262278952       -0.4172335443
 C         -6.7569974240        1.1514652605       -0.6838086571
 C         -4.7424448708       -0.3457431339       -0.8740588470
 C         -3.4074918156       -0.6474560088       -0.6340497246
 C         -2.8847668284       -1.9299312420       -1.2146346901
 C          0.2396493760        1.3983645574       -1.2847763803
 C         -0.7361058047        1.0015222580       -2.3540460764
 C          1.3082551687        2.2082233079       -1.6264587345
 H          3.8436618157        3.1509631315       -1.9873244502
 H          4.1224169424        3.5624323909       -0.2873379226
 H          3.0231109982        4.5346232441       -1.2705306480
 H          2.7050086359        2.6194031929        1.4005284575
 H          1.7270477379        1.0224832742        2.9600499898
 H          0.3272501294        2.0852316000        2.9341305076
 H          0.1113127562        0.3565316719        2.6583837086
 H         -2.6830047534       -1.4603933949        2.0236124942
 H         -2.2788005757       -3.4332518600        3.4169097147
 H         -0.0678411446       -4.5528860411        3.3596410388
 H          1.7088609056       -3.6525248025        1.8994234628
 H          2.5434680290       -1.3690693591        3.0508359270
 H          4.7983961246       -0.4992213226        3.5455722632
 H          6.3025527136        0.2081529935        1.7461892679
 H          5.6013922911        0.0509493647       -0.6190815423
 H          4.2696076185       -0.4878910853       -2.9740501835
 H          2.6642249284       -1.2603621544       -4.6878291742
 H          0.5230490985       -2.2532663806       -4.0354480642
 H         -0.1118741444       -2.4548162923       -1.6579047344
 H         -2.0380399861        1.9715285830        2.2659651252
 H         -3.0017566692        3.2905922062        1.5954623475
 H         -1.5178139103        2.7698779607        0.7873244025
 H         -4.9442917666        2.6239277333        0.6701378562
 H         -7.2859865858        0.2862916849       -1.0767214515
 H         -6.8296055939        1.9592675485       -1.4130367444
 H         -7.2512876305        1.4825018309        0.2284546094
 H         -5.3456440219       -1.0503300050       -1.4312977503
 H         -3.6719865097       -2.6812484355       -1.2463316475
 H         -2.5454712979       -1.7626456000       -2.2381076016
 H         -2.0545737073       -2.3181015193       -0.6338022154
 H         -1.7094465337        1.4496095469       -2.1581307825
 H         -0.3909540574        1.3356198692       -3.3300985276
 H         -0.8607750201       -0.0766753595       -2.3820015974
 H          1.4327751427        2.5112601598       -2.6576313273
