  108
 
 C         -0.6773899895        4.6065926189        4.2043371052
 C          0.3221618644        4.2784631771        3.0945979007
 C          1.7673810137        4.4019858941        3.5827894855
 C          0.1213328777        5.1662691241        1.8899364251
 C          0.1160252779        6.5478186476        2.0244105357
 C         -0.0611300335        7.3651490405        0.9250703744
 C         -0.2253441230        6.8138312382       -0.3306544419
 C         -0.2050935193        5.4376822851       -0.5108611068
 C         -0.3901153267        4.8413796562       -1.8858791257
 C          0.6057454993        5.4272665356       -2.8876684275
 C         -1.8362873044        5.0484138906       -2.3419736107
 C         -0.0358974780        4.6309375946        0.6130806983
 N         -0.0242054747        3.2061720479        0.4472217418
 C         -1.2616377624        2.5791128107        0.3979296242
 O         -2.2929606853        3.2339106002        0.5090997781
 C         -1.2327402589        1.1444763584        0.1980685708
 C         -2.4426307255        0.4339016812        0.1243900452
 C         -2.4251352351       -0.9323009545       -0.0584761109
 N         -3.6479305021       -1.6560230746       -0.1410684472
 C         -4.4430324893       -1.5163747157       -1.2605133310
 C         -4.0285168124       -0.6805509390       -2.3074582743
 C         -4.8054433345       -0.5160337038       -3.4310583530
 C         -6.0114923420       -1.1904397763       -3.5417873395
 C         -6.4118071169       -2.0372744552       -2.5253410774
 C         -5.6492367768       -2.2233596253       -1.3802800861
 C         -6.1259636575       -3.1881221688       -0.3156920165
 C         -7.4980113075       -2.7162033905        0.2025034670
 C         -6.2461947801       -4.5903698473       -0.9424449578
 C         -5.1694958164       -3.2557571397        0.8551747172
 C         -5.4559287934       -4.0879433424        1.9283421661
 C         -4.6326207146       -4.1629787322        3.0366575190
 C         -3.4968218026       -3.3709421961        3.0964680195
 C         -3.1867499967       -2.5363500626        2.0470065216
 C         -3.9993406308       -2.4828861455        0.9047382683
 C         -1.2203225459       -1.6309324506       -0.1844100963
 C          0.0046146208       -0.9456692650       -0.1225941810
 C          1.2392651235       -1.6080242170       -0.2273039755
 C          2.4342761288       -0.8866393101       -0.1452895276
 N          3.6669311799       -1.5879855398       -0.2683580411
 C          4.0748962379       -2.3958886399        0.7715960790
 C          3.3069459506       -2.4540035942        1.9440912591
 C          3.6744078080       -3.2698383327        2.9897761643
 C          4.8242601739       -4.0378802601        2.8953898914
 C          5.6031712275       -3.9583243201        1.7557278347
 C          5.2583968594       -3.1448607015        0.6853744206
 C          6.1674465091       -3.0714298849       -0.5223860010
 C          7.5479558886       -2.5642640756       -0.0633745588
 C          6.2936294252       -4.4784989025       -1.1370545897
 C          5.6293851535       -2.1301454559       -1.5787646434
 C          6.3422591723       -1.9428759237       -2.7552014629
 C          5.8847114437       -1.1169345961       -3.7647042684
 C          4.6705428815       -0.4652128391       -3.6139341343
 C          3.9421925665       -0.6312106785       -2.4584507934
 C          4.4145740036       -1.4460824585       -1.4195977769
 C          2.4328803261        0.4802058484        0.0332494744
 C          1.2132060072        1.1682028477        0.1503962466
 C         -0.0050286022        0.4656032409        0.0739197815
 C          1.2221293656        2.6038468654        0.3454056858
 O          2.2441076164        3.2795575002        0.4072754343
 H         -0.5764177868        3.8920400748        5.0192212150
 H         -0.5110188570        5.6035020204        4.6041978243
 H         -1.6930075898        4.5526626105        3.8183789399
 H          0.1545783138        3.2375652942        2.7990948016
 H          2.4491228667        4.1530815770        2.7724872564
 H          1.9763811006        5.4176885291        3.9106506880
 H          1.9462952612        3.7235737860        4.4149965540
 H          0.2492558536        6.9912471184        2.9995234587
 H         -0.0711417822        8.4388576429        1.0477686394
 H         -0.3685740972        7.4632029639       -1.1810026610
 H         -0.2054759940        3.7633874097       -1.8324113135
 H          0.5174840103        4.9142983568       -3.8437206743
 H          0.4241725023        6.4861614899       -3.0523298917
 H          1.6214733145        5.3029480352       -2.5185836902
 H         -2.5155024132        4.6123650545       -1.6127231799
 H         -2.0620470481        6.1082998130       -2.4336750236
 H         -2.0018284475        4.5725559951       -3.3069457595
 H         -3.3693134716        0.9773306434        0.2197746771
 H         -3.0882797511       -0.1595505593       -2.2285637406
 H         -4.4703031526        0.1374498788       -4.2216416641
 H         -6.6311468108       -1.0644798298       -4.4161350846
 H         -7.3457326820       -2.5671681211       -2.6333841162
 H         -7.8799371783       -3.3939314296        0.9605342264
 H         -8.2212986727       -2.6678043244       -0.6062999246
 H         -7.4063383740       -1.7249347041        0.6418809529
 H         -5.2744727746       -4.9182086772       -1.3069526389
 H         -6.6001672938       -5.3116798458       -0.2114999067
 H         -6.9409200805       -4.5829448919       -1.7773061776
 H         -6.3472144136       -4.6960359571        1.9061269989
 H         -4.8835621515       -4.8229550986        3.8526687914
 H         -2.8565798915       -3.3991533528        3.9648553762
 H         -2.3131058467       -1.9076165418        2.1046412101
 H         -1.2330106524       -2.6989301901       -0.3423169361
 H          1.2665116019       -2.6759195389       -0.3840023648
 H          2.4223135661       -1.8438231523        2.0277770960
 H          3.0679442085       -3.3021080310        3.8819443189
 H          5.1201595313       -4.6828816160        3.7083073168
 H          6.5058361891       -4.5477266646        1.7060679289
 H          7.9733222805       -3.2243178474        0.6870935055
 H          8.2382449841       -2.5107243707       -0.9002106813
 H          7.4519891896       -1.5697452172        0.3676627626
 H          5.3158589680       -4.8312801465       -1.4596969376
 H          6.9552878771       -4.4667821622       -1.9983030603
 H          6.6910531421       -5.1830587989       -0.4121345395
 H          7.2820145040       -2.4549992900       -2.8940370647
 H          6.4666118194       -0.9894822591       -4.6644161506
 H          4.2912701737        0.1717660399       -4.3980228453
 H          2.9955847006       -0.1277979555       -2.3477025792
 H          3.3521075602        1.0411309021        0.0925007945
