102
 xtb: 6.7.1 (edcfbbe)
C           -6.07744367826760       -5.36995775940598        0.48134528603515
C           -5.22480615703175       -4.15531887819361        0.26875063979393
C           -4.14046283354003       -3.87471106813966        1.08091405998416
C           -3.36877037380588       -2.73386665421783        0.91015831554702
C           -2.24263707923413       -2.49611017894654        1.87424882549819
C           -3.67629326725974       -1.84703302467550       -0.13269834325873
N           -2.89887654644740       -0.69164191502057       -0.34108008193402
C           -1.51267678795315       -0.77614516190522       -0.36519760418928
C           -0.85487442552234       -1.92732405740982       -0.80402824575598
C            0.52274300752916       -1.97960968239024       -0.81413783454999
C            1.28184521544417       -0.89010683034157       -0.39049792685033
C            0.63437067093828        0.27746907125660        0.01823843902037
C           -0.74586669117652        0.31415537455286        0.04475232026960
C            1.46372724898307        1.45630333928413        0.48958851934337
C            1.85989637100762        1.27142592581438        1.95394603812347
C            2.73878202666780        2.17358572414735        2.54416480566542
C            3.13083429245693        2.02263357329099        3.86077944383015
C            2.65445181878887        0.96182566169705        4.61263796212954
C            1.77798134973886        0.06120331405427        4.03603088318426
C            1.38215630656588        0.21554919945209        2.71825417856286
C            0.64264922190074        2.71477474945741        0.27192364472449
C            0.42837019050444        3.15454399228010       -1.03094776848097
C           -0.39917474957036        4.23082442479277       -1.28690365527950
C           -1.03531380827337        4.88149061462909       -0.24323430083165
C           -0.82910812156960        4.45129837784369        1.05472168154925
C            0.00308224414109        3.37447767519968        1.31185313350587
C            2.75938227583880        1.48896220194472       -0.30315916507876
C            3.43360757599049        2.67111619850626       -0.56713170025856
C            4.67898466739689        2.64628626193454       -1.16613206227147
C            5.25760732801219        1.44201296958582       -1.53028499700256
C            4.59080101921950        0.24639218376013       -1.32401941075335
C            3.34180433821855        0.28273032059452       -0.69428649344593
N            2.67364898435842       -0.91298637780578       -0.45547181403652
C            3.44153583263950       -2.04184447844292       -0.19610243818087
C            3.00220597411378       -3.00733591617069        0.70621391096804
C            3.80718434139682       -4.08460443686765        1.01496488186036
C            5.06471998566782       -4.19031534415530        0.44726710491035
C            5.50853302635125       -3.22250441282940       -0.43856361589864
C            4.70879141158407       -2.14521478864971       -0.78375624473903
C            5.08669002700910       -1.10076955971845       -1.81737112522498
C            6.58296808944760       -1.09597014517299       -2.12915759054598
C            4.32080570557517       -1.43009196604602       -3.11719398016453
C           -3.49176367351334        0.58401283161714       -0.46968085711307
C           -4.42411413445722        1.03888935086095        0.47462041716325
C           -4.85232861338499        0.19484399079171        1.63817583074676
C           -4.94911865516469        2.31460282495313        0.34424325398994
C           -4.56967647497374        3.16573206296571       -0.68310186477174
C           -5.12215654468878        4.55641480886641       -0.76354989255715
C           -3.66142010478090        2.69476566270895       -1.61533490981491
C           -3.12611543318327        1.41838975798536       -1.53667613833979
C           -2.16880361539027        0.98614409871302       -2.60769186498677
C           -4.77496312049592       -2.11656930032290       -0.96555224315459
C           -5.14590304031301       -1.21329853566828       -2.10393449556202
C           -5.52973830569386       -3.25573750325033       -0.74344271356611
H           -7.09557677241511       -5.09528776951635        0.74202280406289
H           -6.10837381628029       -5.96895220685695       -0.45300839705047
H           -5.65221465862695       -6.00321276488648        1.27503839026893
H           -3.89265161359927       -4.55124955883508        1.88661927590921
H           -1.32266543948870       -2.95470944063457        1.51114546145290
H           -2.48379324970314       -2.93942648315985        2.83889967470499
H           -2.04807313020874       -1.43492315466458        2.01685990654772
H           -1.43123768312742       -2.77433425770226       -1.14633083811693
H            1.02437428987314       -2.86910240706983       -1.16572499133710
H           -1.24985300086478        1.19869293254939        0.40390044661844
H            3.12016527311237        3.00288564203242        1.96814843323126
H            3.81364893216404        2.73485368102706        4.30079535124160
H            2.96419871088725        0.83976461222251        5.64006723989467
H            1.39636799322061       -0.76896896822015        4.61288270772773
H            0.68997516621185       -0.49409532059180        2.29010623835463
H            0.91810719407131        2.64430835862630       -1.84904229656741
H           -0.55316333127113        4.55876575927703       -2.30447118570298
H           -1.68956304187139        5.71711707618965       -0.44194805201160
H           -1.32342450151472        4.95001268753556        1.87594043086433
H            0.14506452985874        3.03974910669078        2.32932399053755
H            2.98670324012465        3.61639206024937       -0.29688408618048
H            5.20389817126729        3.57083539192508       -1.35291344853316
H            6.22954909925663        1.45360372373640       -1.99575455186710
H            2.03454750531251       -2.89655166048203        1.17234600167330
H            3.45815136911206       -4.83323311472186        1.71081036268685
H            5.70224943163384       -5.02677635207499        0.69092998433985
H            6.49211950365620       -3.32885159614708       -0.86639289984981
H            7.16381701717982       -0.86375458107084       -1.24033853635780
H            6.89076055719049       -2.06594976633455       -2.51267447482372
H            6.80474007172089       -0.36344681937450       -2.90089968983348
H            4.61778563743594       -2.40961646804349       -3.48737552958089
H            4.53996405059784       -0.68457002582748       -3.87894327374316
H            3.24665682624452       -1.43897012419791       -2.94524754866947
H           -5.48585903532338       -0.62969387346421        1.31458402130882
H           -3.99041494741095       -0.22786562476271        2.14914074952137
H           -5.41275443160783        0.79745073719744        2.35026796804747
H           -5.66283555057242        2.66312529018831        1.07863372673246
H           -6.20452565729353        4.54974807675653       -0.64768945911665
H           -4.70585879582781        5.17050431840385        0.03657418651014
H           -4.87323740076038        5.01915752811051       -1.71494588203418
H           -3.36195520688191        3.33299416315633       -2.43440952341018
H           -1.15358641884422        1.28612315200363       -2.34814158284441
H           -2.17018295437769       -0.09202140929883       -2.74481471701730
H           -2.43168525381826        1.46177971093873       -3.55086023726028
H           -5.86678358153186       -1.70628762297196       -2.75149925287518
H           -4.27247594535273       -0.95001143586909       -2.69246618776086
H           -5.59350135849235       -0.28608632306089       -1.74033425276663
H           -6.37828162409032       -3.45395437535334       -1.38393065639108
