  49
 
 C          5.5777773694        1.1893708196        0.9030607627
 C          5.1908114306        0.0099193017        0.0017155169
 C          5.5697139810       -1.3047757829        0.6882785378
 C          5.8930639716        0.1036861781       -1.3535369148
 N          3.7445071810        0.0240250708       -0.2049693245
 C          3.1026283070        1.0787915744       -0.8628167043
 O          3.7130056169        1.9789677267       -1.4614996751
 C          1.6961603829        0.9820155745       -0.7102909026
 C          0.7146040797        1.8436158207       -1.2772164161
 C         -0.6020433200        1.5681870853       -1.0917905014
 C         -1.0286396952        0.4448256857       -0.3103566957
 N         -2.3783532466        0.1704195402       -0.1535798117
 C         -3.3610431020        1.0872893083        0.1563196540
 C         -3.2445570384        2.4429839970        0.4411765167
 C         -4.4006009110        3.1406187620        0.7407992980
 C         -5.6414752833        2.5079855565        0.7723425045
 C         -5.7599843814        1.1492300116        0.5232994712
 C         -4.6166941442        0.4298243861        0.2210081861
 C         -4.3614389769       -0.9594179888       -0.0562505296
 C         -5.1706597710       -2.0793461740       -0.1449036398
 C         -4.5867105037       -3.2942188547       -0.4688848611
 C         -3.2199141793       -3.3921339496       -0.7200521399
 C         -2.3912165761       -2.2877831444       -0.6364144888
 C         -2.9657328840       -1.0728369259       -0.2816012405
 C         -0.0623172479       -0.3792513010        0.3055214693
 C          1.2503265508       -0.0892227983        0.1174463529
 S          2.6865764443       -0.8590486315        0.7932759126
 O          2.8942901495       -0.5162536510        2.1719066117
 O          2.7496536475       -2.2514800377        0.4599854656
 H          5.3345064528        2.1251730286        0.4049837735
 H          5.0270033913        1.1299145877        1.8394171110
 H          6.6438201508        1.1653256480        1.1125254756
 H          5.2256992466       -2.1516747610        0.1005922412
 H          5.1142610796       -1.3648468259        1.6727285088
 H          6.6508232235       -1.3557817790        0.7930725566
 H          5.6102272408       -0.7374448915       -1.9819952696
 H          5.6034604076        1.0252325061       -1.8549845567
 H          6.9703762847        0.0996123163       -1.2117531712
 H          1.0474654118        2.6710597144       -1.8830865162
 H         -1.3605123184        2.1580153816       -1.5839295051
 H         -2.2828644876        2.9312001882        0.4491948854
 H         -4.3388454057        4.1945986267        0.9640053985
 H         -6.5221095475        3.0850498633        1.0099165446
 H         -6.7209202157        0.6604855129        0.5699107199
 H         -6.2331161617       -2.0050765306        0.0287382881
 H         -5.2013032241       -4.1785579132       -0.5408366355
 H         -2.7986869632       -4.3479302164       -0.9906328596
 H         -1.3375018024       -2.3673210784       -0.8531186433
 H         -0.3642521205       -1.1805250451        0.9620629439
