  43
 
 C         -2.3583355143        3.6447865700       -0.1330390488
 C         -0.9725935126        3.6801348105       -0.1576512664
 C         -0.2535971581        2.4980232984       -0.1366635641
 C         -0.8957878893        1.2700516486       -0.0931770143
 C         -2.2944055789        1.2395628927       -0.0713597767
 C         -3.0167295658        2.4331121606       -0.0910425419
 N         -2.9589980458        0.0366185265       -0.0324742248
 C         -2.3241163986       -1.1819880948       -0.0792232754
 C         -3.0755049757       -2.3573194287       -0.1058279840
 C         -2.4470416410       -3.5844869082       -0.1557374021
 C         -1.0625944749       -3.6536505686       -0.1816894875
 C         -0.3148096839       -2.4896837109       -0.1537994947
 C         -0.9266672848       -1.2466354687       -0.1020370393
 C         -0.0783000451        0.0012639350       -0.0447198663
 C          0.7863078978       -0.0140434679        1.2056819913
 C          0.3971477758       -0.0160866077        2.5052233420
 C          1.3807987362       -0.0319123391        3.5153168701
 C          2.7518391705       -0.0453507788        3.1772640508
 C          3.1706397497       -0.0437078056        1.8818343251
 C          2.1910324528       -0.0281056097        0.8348542726
 C          2.3036880634       -0.0238738827       -0.5415275115
 C          3.4407527414       -0.0327410862       -1.4150784598
 C          3.2381260785       -0.0253582246       -2.7617099431
 C          1.9407346711       -0.0093830076       -3.3179551291
 C          0.8054601473       -0.0002384235       -2.4809410796
 C          0.9775869061       -0.0070780156       -1.1353979554
 H         -2.9261751786        4.5630137151       -0.1474146713
 H         -0.4546163529        4.6261463849       -0.1911930418
 H          0.8259388115        2.5217748570       -0.1527649794
 H         -4.0972348451        2.3960183160       -0.0736754892
 H         -3.9681924519        0.0489906962       -0.0289103397
 H         -4.1547651891       -2.2938504411       -0.0873936673
 H         -3.0372385850       -4.4884109109       -0.1752065687
 H         -0.5680103407       -4.6118610846       -0.2214605452
 H          0.7638179347       -2.5397491838       -0.1707321524
 H         -0.6498554501       -0.0058453578        2.7750903950
 H          1.0852806122       -0.0337546146        4.5522274856
 H          3.4774460682       -0.0572262833        3.9786053935
 H          4.2191854272       -0.0540450345        1.6264456128
 H          4.4337971180       -0.0449515274       -0.9926489285
 H          4.0846096756       -0.0317576081       -3.4342016089
 H          1.8176240217       -0.0039205165       -4.3890732029
 H         -0.1837781569        0.0121920594       -2.9171069998
