  112
 
 C         12.4288052404        2.4838144712        2.1537901004
 C         11.4288454969        1.6259050608        2.3203099636
 C         10.8433652674        0.7576232904        1.3049910631
 C         11.1920767791        0.8199651225       -0.0455751780
 C         10.6067365403       -0.0230479412       -0.9682966314
 C          9.6593693564       -0.9606280133       -0.5726888369
 C          9.0420741747       -1.8958775449       -1.5840623980
 O          7.7588639942       -2.3689090829       -1.2289233569
 C          6.7130595003       -1.4927655681       -1.2209439366
 C          6.7904045223       -0.1420038549       -1.5242078955
 C          5.6500251206        0.6588001851       -1.5155184923
 C          4.4046821489        0.1616753601       -1.1936570093
 C          4.3215208018       -1.1853863217       -0.8616964486
 C          5.4589983113       -2.0195756449       -0.8850448420
 C          5.0128969719       -3.3372396966       -0.5340985215
 C          5.6596704687       -4.5563539565       -0.3736273328
 C          4.9129681139       -5.6553679445        0.0024543830
 C          3.5424599151       -5.5479091827        0.2314170043
 C          2.8777945687       -4.3458199456        0.0785283519
 C          3.6181506913       -3.2417377973       -0.3201302893
 N          3.2157137109       -1.9365623091       -0.5213111760
 C          1.9019575866       -1.4563594828       -0.4063096903
 C          0.8598902763       -2.0938707648       -1.0750867083
 C         -0.4323208293       -1.6251603309       -0.9612392190
 C         -0.7137927769       -0.5045465633       -0.1787244858
 N         -2.0252736821       -0.0291516345       -0.0626594720
 C         -2.2690418887        1.3477645826       -0.0376441016
 C         -3.2761805116        1.8770544384        0.7709319421
 C         -3.5292911185        3.2330165705        0.7789664581
 C         -2.7686549582        4.0960226749       -0.0057427477
 N         -3.0272561346        5.4761168964        0.0010113915
 C         -3.1076116966        6.2790047039        1.1203843627
 C         -2.9100378726        5.9555506094        2.4557438783
 C         -3.0243050437        6.9680535360        3.3890675904
 C         -3.3219717357        8.2761597783        3.0108378694
 C         -3.5001297166        8.6081056576        1.6824545755
 C         -3.3884655633        7.6078152581        0.7247984624
 C         -3.4853603747        7.5941412686       -0.7081451303
 C         -3.7507042235        8.5715858863       -1.6591136249
 C         -3.7881714404        8.2074894022       -2.9905108626
 C         -3.5778041270        6.8852837990       -3.3781068924
 C         -3.3124386253        5.8953257151       -2.4514015867
 C         -3.2521730875        6.2589499384       -1.1130710086
 C         -1.7514148404        3.5745982747       -0.8009394346
 C         -1.5105310831        2.2165949889       -0.8238424098
 C         -3.0892612362       -0.9335908398        0.0121742101
 C         -2.9480727770       -2.1375157870        0.7043082191
 C         -3.9949870837       -3.0326441917        0.7757946111
 C         -5.2088033916       -2.7476715454        0.1556269258
 N         -6.2732152195       -3.6603720533        0.2259079000
 C         -7.5596948316       -3.3710096351        0.6328464125
 C         -8.0931813271       -2.1750156628        1.0931565348
 C         -9.4243461363       -2.1618573801        1.4631193130
 C        -10.2121450644       -3.3091901156        1.3872973351
 C         -9.6819474548       -4.5069648164        0.9505026484
 C         -8.3455606008       -4.5456986996        0.5726621695
 C         -7.4809610365       -5.5900763820        0.0987835010
 C         -7.6711602617       -6.9379340271       -0.1792364020
 C         -6.6038712017       -7.6729981702       -0.6558131584
 C         -5.3615914349       -7.0777510327       -0.8683262793
 C         -5.1472732618       -5.7397358388       -0.5983912378
 C         -6.2107936593       -4.9999005678       -0.0998357809
 C         -5.3548067489       -1.5473894040       -0.5349445510
 C         -4.3086295976       -0.6511555821       -0.6054772785
 C          0.3336503501        0.1338450690        0.4864312767
 C          1.6251664988       -0.3384756844        0.3766409986
 C          9.3083862404       -1.0340804199        0.7686932623
 C          9.8864751658       -0.1833095147        1.6898582572
 H         12.9252986110        2.6265998845        1.2092050440
 H         12.7947470633        3.0805392724        2.9721251628
 H         10.9840982243        1.5259666879        3.3035528734
 H         11.9205280839        1.5413310768       -0.3816003406
 H         10.8858900229        0.0451941034       -2.0107615316
 H          9.6501846690       -2.8062972172       -1.6553420474
 H          9.0169999792       -1.4249246904       -2.5763627190
 H          7.7368350812        0.3126415082       -1.7683770519
 H          5.7544337353        1.7031598583       -1.7708315955
 H          3.5309832782        0.7936719965       -1.2076256045
 H          6.7233902230       -4.6285141044       -0.5394935386
 H          5.3958149895       -6.6134137301        0.1304553627
 H          2.9877767205       -6.4231041559        0.5378067475
 H          1.8186219983       -4.2695330161        0.2731654899
 H          1.0721576839       -2.9473925528       -1.7010730141
 H         -1.2334476473       -2.1195130907       -1.4901959234
 H         -3.8651909892        1.2160491805        1.3889412941
 H         -4.3225715134        3.6314543279        1.3935223224
 H         -2.6656560187        4.9479552932        2.7568101422
 H         -2.8768949442        6.7418087741        4.4352654363
 H         -3.4060837180        9.0393866995        3.7707473209
 H         -3.7174655686        9.6244954639        1.3891218003
 H         -3.9272039993        9.5938036439       -1.3586692308
 H         -3.9905277590        8.9531526803       -3.7455543384
 H         -3.6266845549        6.6284517333       -4.4265071199
 H         -3.1655170736        4.8712379595       -2.7600638289
 H         -1.1509919638        4.2407238775       -1.4021729672
 H         -0.7275928571        1.8193250311       -1.4523652478
 H         -2.0135879451       -2.3620224930        1.1964373314
 H         -3.8830758616       -3.9521174642        1.3305158371
 H         -7.4874698477       -1.2845716923        1.1688632606
 H         -9.8638724267       -1.2425491597        1.8223597740
 H        -11.2497763557       -3.2574209409        1.6834965190
 H        -10.2893960806       -5.3987810714        0.9055514311
 H         -8.6371062562       -7.3967434729       -0.0280979109
 H         -6.7307731311       -8.7228251512       -0.8766558944
 H         -4.5491915663       -7.6758969035       -1.2552159240
 H         -4.1852705209       -5.2843535472       -0.7792549743
 H         -6.2870179103       -1.3300198553       -1.0342919077
 H         -4.4275499871        0.2720909016       -1.1525588659
 H          0.1262180607        0.9972392094        1.1008267717
 H          2.4261270421        0.1464745054        0.9139255084
 H          8.5722344418       -1.7590165260        1.0860662120
 H          9.5968004312       -0.2513914416        2.7291613701
