77

C     -7.245584   -2.625210   -0.350682
C     -5.982425   -3.512492   -0.272095
C     -6.154807   -4.440378    0.950295
C     -5.943538   -4.367106   -1.557274
C     -4.670341   -2.718582   -0.139810
C     -3.445125   -3.393563   -0.038962
C     -2.222916   -2.719735    0.086506
C     -2.223925   -1.314178    0.132845
C     -3.414423   -0.602950   -0.008443
C     -4.634711   -1.312583   -0.131248
C     -3.094057    0.786259   -0.006533
C     -3.877773    1.959216   -0.117134
C     -3.302840    3.245366   -0.047739
C     -4.195904    4.492757   -0.173664
C     -4.931122    4.471283   -1.531577
C     -5.236084    4.502725    0.967208
C     -3.420508    5.827620   -0.097640
C     -1.920583    3.320396    0.152472
C     -1.117537    2.175380    0.262725
C     -1.714544    0.906293    0.149896
N     -1.186893   -0.384168    0.233498
C      0.195830   -0.701240    0.396332
C      1.165208   -0.019651   -0.351692
C      2.519354   -0.332281   -0.196941
C      2.910419   -1.316376    0.718105
C      4.335935   -1.687708    0.902799
O      4.625624   -2.860390    1.124827
C      5.420244   -0.676390    0.824078
C      5.247086    0.620159    1.299948
C      6.290980    1.545712    1.220034
C      7.523838    1.145749    0.665250
S      8.923371    2.117877    0.471806
C      9.832357    0.840346   -0.223186
C     11.169214    0.899961   -0.666134
C     11.756510   -0.244486   -1.208422
C     11.034654   -1.423930   -1.309723
C      9.708850   -1.477346   -0.869259
C      9.080717   -0.331742   -0.313289
C      7.735052   -0.152689    0.200781
C      6.657288   -1.071960    0.295036
C      1.940997   -2.009906    1.450923
C      0.587097   -1.701016    1.295638
H     -7.221824   -1.965063   -1.225551
H     -7.357377   -2.002589    0.544674
H     -8.152704   -3.235839   -0.434230
H     -5.355487   -5.186060    1.021543
H     -7.101496   -4.990861    0.898367
H     -6.153583   -3.866162    1.884409
H     -5.136453   -5.107658   -1.538204
H     -6.881245   -4.918401   -1.693894
H     -5.793204   -3.739609   -2.443806
H     -3.415188   -4.481740   -0.065243
H     -1.302323   -3.293784    0.126799
H     -5.542190   -0.725866   -0.227598
H     -4.950240    1.844182   -0.250025
H     -5.546473    5.369192   -1.662146
H     -5.600049    3.609159   -1.628102
H     -4.219373    4.430559   -2.364671
H     -5.864575    5.399815    0.921209
H     -4.745961    4.488640    1.947955
H     -5.907916    3.638505    0.923237
H     -4.097470    6.684198   -0.201138
H     -2.675225    5.907149   -0.897659
H     -2.904506    5.940887    0.862907
H     -1.416835    4.280004    0.238883
H     -0.054819    2.291313    0.450915
H      0.882033    0.719967   -1.097937
H      3.250935    0.180586   -0.816577
H      4.310051    0.930700    1.756170
H      6.156391    2.558814    1.590676
H     11.737426    1.822641   -0.586518
H     12.787730   -0.208467   -1.551873
H     11.498861   -2.312099   -1.731652
H      9.157825   -2.411046   -0.954408
H      6.791214   -2.096059   -0.048560
H      2.239245   -2.788703    2.150844
H     -0.140178   -2.225346    1.911646
