  68
 
 C         -6.4187798744        0.3642848765        2.1580263642
 C         -5.3743228145       -0.5149575213        2.4120118663
 C         -4.2037946972       -0.4346837949        1.6932379654
 C         -4.0280865626        0.5465390551        0.6976425828
 C         -2.8244613274        0.5936874734       -0.0741640376
 C         -2.0429304984       -0.6439670780       -0.2379507690
 C         -2.7387144758       -1.8283868292       -0.6586471975
 C         -2.3167918625       -3.1123646664       -0.2682696693
 C         -3.0265649359       -4.2337690766       -0.6380050120
 C         -4.1748987752       -4.1194850288       -1.4084218342
 C         -4.6151010670       -2.8603378945       -1.7925218645
 C         -3.9176167553       -1.7333674928       -1.4200171043
 C         -0.6434887149       -0.5983005492       -0.0117321349
 C          0.2516047687       -1.4995880958       -0.6353514924
 C          1.6088183912       -1.3603267469       -0.5138432181
 C          2.1601473315       -0.3212108897        0.2481801472
 N          3.5389455512       -0.1482678680        0.3326705259
 C          4.0761649544        1.1437808349        0.3734393565
 C          5.2026827135        1.4161435375        1.1497847860
 C          5.7315260943        2.6915879033        1.1835583323
 C          5.1456727232        3.7141070165        0.4550168225
 C          4.0240613788        3.4494073572       -0.3142728171
 C          3.4920934594        2.1760252376       -0.3618348317
 C          4.3890295551       -1.2591114892        0.3382157187
 C          4.0228345576       -2.4224441948        1.0158617948
 C          4.8618074805       -3.5193279137        1.0173814134
 C          6.0769037640       -3.4747269490        0.3531052759
 C          6.4465041319       -2.3207878279       -0.3189447046
 C          5.6117098593       -1.2207651845       -0.3326249398
 C          1.2886712479        0.5599790317        0.9028573271
 C         -0.0672340884        0.4294355869        0.7728668089
 C         -2.3410573688        1.7874605191       -0.6986054112
 C         -1.4908230176        1.7194828796       -1.8207576275
 C         -0.9645891633        2.8593015249       -2.3842202724
 C         -1.2518991514        4.1077172543       -1.8486533145
 C         -2.0767480604        4.1975193435       -0.7354410339
 C         -2.6156109095        3.0643240704       -0.1688805177
 C         -5.1045594462        1.4206557335        0.4480206941
 C         -6.2753474327        1.3250090032        1.1662360156
 H         -7.3382497798        0.2951060764        2.7197341262
 H         -5.4812115115       -1.2684394292        3.1792264877
 H         -3.3918631343       -1.1142534647        1.9066681480
 H         -1.4514307623       -3.2122096206        0.3707971740
 H         -2.6899302110       -5.2093154431       -0.3163318450
 H         -4.7264393962       -5.0014832479       -1.6977407347
 H         -5.5116362244       -2.7627118515       -2.3879056530
 H         -4.2613905361       -0.7585893512       -1.7342633734
 H         -0.1434737367       -2.2668646913       -1.2839528311
 H          2.2695472830       -2.0354251950       -1.0388235248
 H          5.6541751907        0.6229299114        1.7276256034
 H          6.6027568529        2.8901344946        1.7902162278
 H          5.5602215982        4.7101467885        0.4868074630
 H          3.5630306721        4.2389085001       -0.8891077335
 H          2.6235344616        1.9709617200       -0.9704687224
 H          3.0813162964       -2.4534806389        1.5442947503
 H          4.5684801720       -4.4128756916        1.5484261900
 H          6.7312772292       -4.3330204484        0.3590385819
 H          7.3892084841       -2.2794979246       -0.8443935881
 H          5.8965552969       -0.3263370825       -0.8671126194
 H          1.6999473852        1.3467900273        1.5186193011
 H         -0.7173933491        1.1091510050        1.3024534201
 H         -1.2739696634        0.7549066706       -2.2558102131
 H         -0.3234429155        2.7809956589       -3.2509114197
 H         -0.8325884317        4.9999342274       -2.2890473327
 H         -2.2901724370        5.1644031470       -0.3020160438
 H         -3.2151161979        3.1458184200        0.7259433488
 H         -5.0236772160        2.1416280211       -0.3523349074
 H         -7.0924605714        1.9981454899        0.9482470948
