  70
 
 C          1.5312084804        1.5655073419       -4.7324367027
 C          1.1358327389        0.4854307090       -3.7321280969
 C          2.2999424537        0.1086683767       -2.8200809936
 C          1.8979140037       -0.9725343018       -1.8184453335
 O          2.9822251129       -1.4051641093       -1.0157890524
 C          3.5931826447       -0.5158207372       -0.1655848787
 C          4.9834378330       -0.5942699536       -0.1194981783
 C          5.7205159213        0.2214262212        0.7163249952
 C          5.0709867011        1.1506853696        1.5134905715
 C          3.6937232806        1.2316578993        1.4802995200
 C          2.9233334992        0.3981669579        0.6650572996
 C          1.4603530472        0.5000214440        0.7586424684
 C          0.7157940441       -0.5769284457        1.3316722203
 C          1.3447654911       -1.7316736924        1.8027643061
 C          0.6192322146       -2.7565643551        2.4102803950
 C         -0.7401561648       -2.6225093504        2.5868181610
 C         -1.3896238882       -1.4712683337        2.1400916467
 C         -0.6973905725       -0.4513391352        1.4828459322
 C         -1.3577207451        0.7311076943        1.0322028297
 C         -2.8148771167        0.8314101051        1.1406902222
 C         -3.4078388392        1.8052044295        1.9396623836
 C         -4.7824375716        1.8948954364        2.0601319076
 C         -5.5875822370        1.0112893014        1.3634463578
 C         -5.0247747322        0.0423551013        0.5472123441
 C         -3.6446770658       -0.0615342108        0.4274522093
 O         -3.0014486565       -0.9524484845       -0.3743702084
 C         -3.7593985577       -1.8895893413       -1.1169424676
 C         -2.7877280178       -2.8188760394       -1.8379290902
 C         -2.0233075550       -3.7107482790       -0.8615757169
 C         -1.0367677358       -4.6247068297       -1.5769289106
 C         -0.6095205760        1.8196114783        0.4901932860
 C         -1.2310383366        2.9767612644        0.0126986602
 C         -0.4946321821        4.0307355491       -0.5303341066
 C          0.8750560221        3.9316306026       -0.6294846815
 C          1.5190496149        2.7707470913       -0.1993460823
 C          0.8090967080        1.7093912783        0.3682279647
 H          1.8582476302        2.4640009782       -4.2140062050
 H          0.6869103700        1.8235892933       -5.3675143719
 H          2.3453401986        1.2192036294       -5.3656931303
 H          0.7983408061       -0.4030395639       -4.2710262170
 H          0.3028675041        0.8404747071       -3.1206546414
 H          2.6356391490        0.9921217742       -2.2713305710
 H          3.1396775626       -0.2551806482       -3.4174278171
 H          1.5819197236       -1.8785880336       -2.3423647647
 H          1.0664013536       -0.6162571672       -1.1999008228
 H          5.4670145700       -1.3161759294       -0.7605641797
 H          6.7967825610        0.1389330888        0.7369858100
 H          5.6342204472        1.8019316718        2.1649355917
 H          3.1779809268        1.9322738705        2.1216900154
 H          2.4145528630       -1.8334814013        1.7008421539
 H          1.1340343966       -3.6430818388        2.7501402279
 H         -1.3105945673       -3.4005603768        3.0727492755
 H         -2.4497664731       -1.3644900216        2.3136365084
 H         -2.7685072535        2.4788079502        2.4919328576
 H         -5.2216878192        2.6471356332        2.6978077826
 H         -6.6625525191        1.0722135847        1.4470709881
 H         -5.6737557788       -0.6262983951        0.0037913393
 H         -4.4037472209       -2.4721938101       -0.4445186029
 H         -4.3912223539       -1.3628579363       -1.8461007495
 H         -3.3548995221       -3.4338852452       -2.5391478790
 H         -2.0825885362       -2.2090419488       -2.4053282344
 H         -1.4891468416       -3.0775141963       -0.1511475502
 H         -2.7353396357       -4.3184410057       -0.2972095255
 H         -1.5563249583       -5.2790614130       -2.2743046921
 H         -0.3080471300       -4.0392530170       -2.1326520754
 H         -0.5020300515       -5.2409760625       -0.8579288240
 H         -2.3062640988        3.0564020664        0.0581804956
 H         -1.0086956674        4.9155823808       -0.8759027853
 H          1.4571768387        4.7373639990       -1.0520699879
 H          2.5902056667        2.6919526297       -0.3112093924
