  130
 
 C          5.4003016726       -2.4837807559        4.3354336101
 C          4.2528611210       -1.8213047318        3.6279812596
 C          3.4409981968       -0.9322616377        4.3331662786
 C          2.3448573484       -0.3244772703        3.7354297750
 C          1.4600395046        0.5767111135        4.5509174152
 C          2.0688160316       -0.6021999561        2.4031424123
 C          0.7768760841       -0.1018393530        1.7941701104
 C          0.8924059702        1.2714560838        1.3601717814
 C          0.9983752835        2.4309434787        1.0433938439
 C          1.1013906197        3.7739035582        0.6353270607
 C          0.4425606708        4.2213229424       -0.5150824783
 C          0.5489365448        5.5281873493       -0.9273503473
 C          1.3215781646        6.4594221461       -0.2095111327
 N          1.4354482453        7.7571112969       -0.6213525291
 C          2.4280060375        8.6375305635       -0.0555583706
 C          0.5745008561        8.2951230177       -1.6456395375
 C          1.9707857508        6.0034494456        0.9526941138
 C          1.8597041552        4.6957615221        1.3629624766
 C          2.9369074596       -1.4084388928        1.6203355515
 B          2.7523221614       -1.4264250851        0.0603816914
 C          2.7288250905       -2.7893723260       -0.7242600243
 C          3.3976681156       -2.9154519581       -1.9710452548
 C          4.3059799760       -1.8279764258       -2.4705765073
 C          3.2532960476       -4.0629268384       -2.7430877426
 C          3.9213118939       -4.1901626055       -4.0841043694
 C          2.4909517882       -5.1215819150       -2.2661777979
 C          1.8679641047       -5.0587045691       -1.0242241560
 C          1.0504548361       -6.2286105747       -0.5521577996
 C          1.9968034604       -3.9081485645       -0.2562744092
 C          1.2384507849       -3.8397786861        1.0513911002
 C         -0.1605586586       -3.5707869490        0.8118341383
 C         -1.3093505169       -3.3040786520        0.5554405356
 C         -2.6618465233       -3.0125563935        0.2902963105
 C         -3.5308047865       -2.6283430868        1.3154145220
 C         -4.8504059361       -2.3436760087        1.0570455764
 C         -5.3744678864       -2.4332604491       -0.2449368427
 N         -6.6858680580       -2.1528127923       -0.5022666029
 C         -7.2015234917       -2.2254234363       -1.8464210540
 C         -7.6002954772       -1.8722559244        0.5772523177
 C         -4.4928765648       -2.8251762655       -1.2690986591
 C         -3.1727668099       -3.1034631395       -1.0074678393
 C          2.6114390245       -0.0727420393       -0.7129050733
 C          3.5111964491        1.0025397241       -0.4630663255
 C          4.6086504204        0.8424100635        0.5497586925
 C          3.4120123598        2.1988928780       -1.1597258653
 C          4.3311267299        3.3570414514       -0.8860740839
 C          2.4542357591        2.3305668599       -2.1575211233
 C          1.5597950593        1.3038950606       -2.4429122928
 C          0.5458646910        1.5030638458       -3.5342505496
 C          1.6288328464        0.1244130392       -1.7149202807
 C          0.5756061318       -0.9332468610       -1.9779785848
 C         -0.7216950524       -0.4831211913       -1.5211625684
 C         -1.7879101694       -0.0964783332       -1.1121530253
 C         -3.0409993226        0.3528691188       -0.6455107906
 C         -3.2178488758        0.7147164300        0.6906945688
 C         -4.4400501693        1.1457260680        1.1530548960
 C         -5.5528125457        1.2379915964        0.3011484933
 N         -6.7910011259        1.6134346994        0.7717834380
 C         -7.8382304380        1.9468941634       -0.1670290270
 C         -6.9198215484        2.1394875755        2.1112000769
 C         -5.3592941688        0.8924284726       -1.0460684575
 C         -4.1369475849        0.4562612611       -1.5039951656
 C          4.0015327402       -2.0686502373        2.2850971620
 C          4.9175569285       -2.9997570674        1.5439700927
 H          5.3349344546       -3.5684161549        4.2505661786
 H          5.4028925797       -2.2184530029        5.3906595262
 H          6.3530506442       -2.1748177747        3.9028614714
 H          3.6519350198       -0.7380829070        5.3765741205
 H          0.5160964648        0.0807122306        4.7855316973
 H          1.9462268113        0.8357592575        5.4895157167
 H          1.2336176992        1.4929666022        4.0075248378
 H          0.5076255227       -0.7193376503        0.9328855011
 H         -0.0304745730       -0.1757167893        2.5314373955
 H         -0.1468087021        3.5178670988       -1.0841880300
 H          0.0445866392        5.8243538427       -1.8331467532
 H          3.3725420656        8.1098559576        0.0846314897
 H          2.1062434561        9.0452855210        0.9095914508
 H          2.6039830807        9.4658213218       -0.7390650601
 H         -0.4497296100        7.9465749732       -1.5058268777
 H          0.5733981821        9.3812032469       -1.5784485015
 H          0.9089202873        8.0093408165       -2.6496646643
 H          2.5563505955        6.6832797367        1.5503379026
 H          2.3665353900        4.3699161554        2.2609689313
 H          4.6024080713       -1.1708029382       -1.6594867758
 H          3.8076932132       -1.2176734061       -3.2259277436
 H          5.2031347182       -2.2514166795       -2.9210284009
 H          5.0051571326       -4.2546894483       -3.9747396348
 H          3.6994568294       -3.3287121333       -4.7130428401
 H          3.5793404406       -5.0891756525       -4.5933031114
 H          2.3871717911       -6.0158961973       -2.8666204820
 H          0.0348747003       -5.9178233243       -0.3060514354
 H          1.4913426218       -6.6777758576        0.3395286069
 H          1.0014158436       -6.9920221797       -1.3261435958
 H          1.3408524227       -4.7726966534        1.6135303854
 H          1.6473943850       -3.0323646126        1.6650777718
 H         -3.1515396297       -2.5505367615        2.3248265636
 H         -5.4781054314       -2.0393464249        1.8777837469
 H         -6.6128113626       -1.5969299984       -2.5183975050
 H         -8.2295798232       -1.8722169316       -1.8615240508
 H         -7.1865371998       -3.2522308536       -2.2281122589
 H         -8.6079111963       -1.7696962682        0.1829221865
 H         -7.6035798676       -2.6838663064        1.3106706091
 H         -7.3303999922       -0.9416904730        1.0838268785
 H         -4.8416584225       -2.9197185479       -2.2840956206
 H         -2.5139399824       -3.3991233458       -1.8116929794
 H          5.4766918562        1.4442899748        0.2906353770
 H          4.2621299449        1.1519634592        1.5373307758
 H          4.9163761267       -0.1965873598        0.6215918882
 H          3.9932964326        4.2386933293       -1.4269038011
 H          5.3503373655        3.1321012294       -1.2053169290
 H          4.3509632197        3.5921600516        0.1765919680
 H          2.4017627960        3.2516618928       -2.7230241582
 H         -0.4656335209        1.3697581156       -3.1514483411
 H          0.6331394269        2.5027680648       -3.9553804869
 H          0.6954058826        0.7801628405       -4.3382580687
 H          0.5221766656       -1.1665132130       -3.0468762858
 H          0.8265280094       -1.8517216123       -1.4451088478
 H         -2.3746633644        0.6597773958        1.3637250333
 H         -4.5199885901        1.4194303886        2.1922983535
 H         -7.5571451702        2.7826871184       -0.8180965735
 H         -8.0762517780        1.0836266064       -0.7896153949
 H         -8.7364363905        2.2233432675        0.3798728383
 H         -7.9689987167        2.3368994232        2.3194134283
 H         -6.5659877440        1.4093364586        2.8409588629
 H         -6.3572617858        3.0705671863        2.2491360726
 H         -6.1700800641        0.9676510974       -1.7512941020
 H         -4.0145121140        0.1943956362       -2.5460206806
 H          5.9597110922       -2.7113944285        1.6860332547
 H          4.8049560174       -4.0204705320        1.9126091751
 H          4.6940764959       -2.9987261477        0.4817927754
