76
 xtb: 6.7.1 (edcfbbe)
C           -3.12808704608380        2.67990461917192       -1.25697309825534
C           -3.48342714914001        1.34946432358465       -1.84567839958505
C           -3.91305296338833        1.28829357554823       -3.16778062728575
C           -4.29523523569695        0.09257450153259       -3.74453815964183
C           -4.26197393582923       -1.07327272672021       -2.99645952637809
C           -3.83394442172716       -1.02995510801797       -1.68463793719794
C           -3.43183559870145        0.16950716509916       -1.10232593273249
P           -2.84764230549358        0.16666872842258        0.65859051880593
C           -1.41626762764313       -0.98325002367248        0.41010124910112
P           -0.14232571284569       -0.08658964873609       -0.60772508878740
C            1.22520675682405       -1.31139720795506       -0.32587347528950
P            2.71756769465489       -0.78167199847785       -1.29360162820446
C            3.92079409662013       -2.09203987173015       -0.87264511793068
C            3.56880437869242       -3.28515253545341       -0.25085153927892
C            4.51572438012738       -4.26263826945819       -0.00161942642450
C            5.82991119782661       -4.06250701501040       -0.38223972721110
C            6.18544459777249       -2.88806173293137       -1.02235027021559
C            5.24761088412678       -1.90042656560139       -1.28219148514273
C            5.65144006247205       -0.64027825059711       -1.98007105411031
C            3.31031168089095        0.50828566734319       -0.11163849638297
C            3.78200094589713        0.14215183527788        1.14310532050335
C            4.21100687813966        1.10116989474957        2.04063343099719
C            4.17163792991659        2.43792844913585        1.68500067444267
C            3.71029569387877        2.80603964459026        0.43416558233629
C            3.27775465395374        1.85454794252707       -0.47896355050659
C            2.79979982457995        2.26119543900684       -1.83783709996708
C            0.27408740074760        1.22924541140202        0.62233733146968
C            0.16327658517416        2.54460936924283        0.18496193425126
C            0.42079473188271        3.59838889888055        1.04162701023462
C            0.79860874368475        3.34613783173979        2.34859237019325
C            0.91383781937674        2.03940965619209        2.79216271608602
C            0.65007615850589        0.98600232485636        1.93746157795135
C           -4.11595862687661       -0.96358938583264        1.33960319198884
C           -3.80776622904942       -2.21621215805104        1.86002507862579
C           -4.79082368784209       -3.01740238229463        2.41249516853955
C           -6.09812438096907       -2.56917554919100        2.46144391864934
C           -6.40928043344536       -1.31271685246737        1.97160933729548
C           -5.43430415676294       -0.49541106109173        1.41966163744539
C           -5.79288966493405        0.86308968297956        0.90506439675386
H           -4.01389183235846        3.25207688067274       -1.14736086882411
H           -2.59529409189338        2.54997849130412       -0.35814607434579
H           -2.47411013388858        3.20557683061436       -2.00057450436951
H           -3.93788425908814        2.14559720927107       -3.79223232398270
H           -4.62390439442575        0.00289682068480       -4.78444386830904
H           -4.58026236902924       -2.05659807750011       -3.41450298460424
H           -3.83776646492900       -1.95182645705849       -1.07842004377455
H           -1.70802930961981       -1.87950055401178       -0.12928917370789
H           -1.00721430150907       -1.23502094161993        1.39435169808317
H            0.86152368686568       -2.23263153901939       -0.78694430551029
H            1.44746952875691       -1.46722852622341        0.72938465200334
H            2.54120195781928       -3.46273812140954        0.02648789598365
H            4.21691417921260       -5.18315634537758        0.45525943627397
H            6.56683308376922       -4.82247811727576       -0.22207346293028
H            7.20492633406935       -2.73200107729628       -1.35152309746513
H            5.75181917950878        0.18083678547772       -1.26141500018327
H            6.59748080520661       -0.75395797519619       -2.50147430714809
H            4.88551455921215       -0.33464340274601       -2.70786084577788
H            3.82955030822454       -0.91040816657850        1.40944358929000
H            4.58661001719992        0.79020817121824        3.01543700650236
H            4.50910539356478        3.18230702647927        2.39893738598115
H            3.68193718732234        3.85323742594578        0.18531531507812
H            2.56956833039275        3.33867993066085       -1.84406401294795
H            1.89487162834331        1.71657920428148       -2.08899529793198
H            3.55420805490496        2.06397212319799       -2.57118183436678
H           -0.12750514966120        2.74799084093383       -0.80373044149021
H            0.32826753516533        4.61704115677066        0.74333155520510
H            1.01487700906325        4.14373250646278        3.06790676895343
H            1.22691301064555        1.81133280985778        3.83340249658530
H            0.75861765914327       -0.03913739194894        2.31314424731132
H           -2.79313522098461       -2.55942681688623        1.85570788473518
H           -4.53455668727696       -3.95970617531583        2.83762053493222
H           -6.87272891153783       -3.16014439593350        2.91248761972840
H           -7.43123963954836       -0.93493183485838        2.02372484628980
H           -6.71975806027123        1.23210405571382        1.33273860697736
H           -4.99669735125963        1.58446034024465        1.09320448970080
H           -5.93169778928233        0.82971442746145       -0.19738542557398
