  84
 
 O          7.3946684585       -1.3969851009       -2.4398832214
 C          6.9933478357       -1.0523726748       -1.3461703964
 C          7.9244150150       -0.8196845214       -0.2127757755
 C          7.5755659855       -1.1242989262        1.1013684636
 C          8.4878953977       -0.9283262938        2.1218507512
 C          9.7474715246       -0.4214792868        1.8440889381
 C         10.1045183840       -0.1276063999        0.5376684933
 C          9.2020713403       -0.3363788414       -0.4874793997
 C          5.5462887549       -0.8442441071       -1.0840057369
 C          5.0851844889        0.1127921453       -0.1819077435
 C          3.7305522855        0.2997846617        0.0044176593
 C          2.8109074335       -0.4679590314       -0.7085145316
 N          1.4388235663       -0.2817161397       -0.5147251690
 C          0.5102390481       -1.2812846881       -0.2957889617
 C          0.6953550311       -2.6497553353       -0.1554856796
 C         -0.4121296671       -3.4321014219        0.0980544053
 C         -1.6927732038       -2.8750542127        0.2068483460
 N         -2.7889363216       -3.7151621804        0.4533711973
 C         -3.7243186678       -3.5499177360        1.4549516806
 C         -3.7963534050       -2.5824079636        2.4470188014
 C         -4.8368962927       -2.6630156500        3.3523102321
 C         -5.7835879849       -3.6829418752        3.2842776794
 C         -5.7047421536       -4.6607663882        2.3131801631
 C         -4.6675726961       -4.6014830717        1.3916325110
 C         -4.2755925825       -5.4352710684        0.2903430082
 C         -4.8049635448       -6.5903196990       -0.2700371123
 C         -4.1753642734       -7.1418214427       -1.3677406809
 C         -3.0402261483       -6.5482871369       -1.9157672923
 C         -2.4949163772       -5.3992599530       -1.3762985784
 C         -3.1099129977       -4.8529643042       -0.2587531479
 C         -1.8793653214       -1.5054526290        0.0892637840
 C         -0.7720952512       -0.7050156955       -0.1483164237
 C         -0.6014064716        0.7132897862       -0.2938298685
 C         -1.4852937965        1.7813221525       -0.2567971049
 C         -0.9887446548        3.0586644425       -0.4715785170
 N         -1.8538483018        4.1628862594       -0.4468745686
 C         -3.0317037111        4.2832546098       -1.1566059481
 C         -3.6155058297        3.4036336228       -2.0570753973
 C         -4.8009724291        3.7853434964       -2.6551740646
 C         -5.3947532690        5.0143197828       -2.3755151187
 C         -4.8076978327        5.9026567554       -1.4971313378
 C         -3.6154741611        5.5417979080       -0.8831794917
 C         -2.7407522390        6.2047567020        0.0425752656
 C         -2.7810217253        7.4372429033        0.6810738484
 C         -1.7603317614        7.7658309347        1.5504347370
 C         -0.7158383062        6.8774964224        1.7974337408
 C         -0.6535940638        5.6458933129        1.1745984723
 C         -1.6647947893        5.3191032051        0.2822596568
 C          0.3729346050        3.2599708016       -0.7312922680
 C          1.2659860543        2.2089064287       -0.7536213866
 C          0.7774692712        0.9315808850       -0.5159880572
 C          3.2678640019       -1.4167457534       -1.6221205260
 C          4.6218022210       -1.5934943147       -1.8106741096
 H          6.6012087635       -1.5375386741        1.3187849253
 H          8.2166085432       -1.1727232801        3.1383721170
 H         10.4535342976       -0.2635133591        2.6458937959
 H         11.0891700179        0.2582608296        0.3195486840
 H          9.4654241273       -0.1231491749       -1.5128034992
 H          5.7893604458        0.7229352162        0.3641951027
 H          3.3753671330        1.0294855102        0.7163867238
 H          1.6766696757       -3.0939473386       -0.2199755369
 H         -0.2967005689       -4.4968675504        0.2322479728
 H         -3.0580416845       -1.7977753124        2.5189090241
 H         -4.9163671883       -1.9199929162        4.1322805204
 H         -6.5836423643       -3.7091613446        4.0091056388
 H         -6.4295970059       -5.4596451644        2.2691773572
 H         -5.6933269593       -7.0416408094        0.1455181444
 H         -4.5693989358       -8.0411709717       -1.8172259146
 H         -2.5781670312       -6.9946168005       -2.7841237613
 H         -1.6248676201       -4.9370447656       -1.8181897818
 H         -2.8657317453       -1.0767869056        0.1743824161
 H         -2.5346464810        1.6263988185       -0.0598278315
 H         -3.1544528908        2.4564153687       -2.2938540270
 H         -5.2764582597        3.1169670892       -3.3579378603
 H         -6.3230817166        5.2744309292       -2.8620166655
 H         -5.2597890959        6.8612433027       -1.2914744329
 H         -3.5981476910        8.1194574349        0.5009666681
 H         -1.7714141890        8.7202992898        2.0554322954
 H          0.0609643190        7.1566711461        2.4942150974
 H          0.1510317492        4.9571260427        1.3847911015
 H          0.7195940988        4.2619971142       -0.9333879382
 H          2.3082069732        2.3803543954       -0.9743618855
 H          2.5558770019       -1.9898925001       -2.1963899156
 H          4.9889318101       -2.3135319955       -2.5265517539
