  99
 
 C         -8.7080040802       -4.8483607652       -0.4039230884
 C         -7.6746853750       -3.7639480797       -0.4411365769
 C         -6.4688192860       -3.9062275107        0.2353965822
 C         -5.5219824300       -2.9019117046        0.2269920922
 C         -5.7561282527       -1.7203818421       -0.4742254185
 N         -4.7968230509       -0.6986591191       -0.4887407686
 C         -5.2062728243        0.6411234415       -0.4437437564
 C         -4.5367368695        1.6153168156       -1.1831016595
 C         -4.9401458269        2.9343998955       -1.1281006785
 C         -6.0257473911        3.3222378492       -0.3522902627
 C         -6.4534235781        4.7567394976       -0.2839386425
 C         -6.6950996932        2.3450065779        0.3754036883
 C         -6.2936638367        1.0247091609        0.3391877601
 C         -3.4408358025       -1.0043593256       -0.5719743179
 C         -2.9990133404       -2.1023469461       -1.3171104995
 C         -1.6538638201       -2.3914080940       -1.4436937027
 C         -0.7239762167       -1.5669709128       -0.8280512368
 C         -1.1710959775       -0.4762862420       -0.0660380465
 C         -2.5042917877       -0.1915559987        0.0795807806
 C          0.0003078279        0.2892639648        0.5058321046
 C         -0.0057807942        0.3674136558        2.0092994778
 C         -0.0144261795       -0.6673620995        2.9140612447
 C         -0.0199529570       -0.3492200260        4.2763995652
 C         -0.0289686981       -1.3879011129        5.2345370189
 N         -0.0363090220       -2.2289614448        6.0138984490
 C         -0.0169513086        0.9813530789        4.7065485567
 C         -0.0083012252        2.0147743365        3.7893195774
 C         -0.0027522754        1.7065729619        2.4363146666
 C          0.0071123810        2.5613504689        1.2634610848
 C          0.0168526805        3.9435469418        1.1418031947
 C          0.0293819388        4.4991791623       -0.1231308849
 C          0.0318023461        3.6815077975       -1.2574985149
 C          0.0474624114        4.2748893627       -2.5396607967
 N          0.0610988983        4.7590652767       -3.5790917156
 C          0.0206728202        2.2874948966       -1.1423314683
 C          0.0083347269        1.7442716346        0.1201298234
 C          1.1720563383       -0.4802715856       -0.0599173877
 C          2.5050967643       -0.1965581836        0.0884044288
 C          3.4422282523       -1.0081184782       -0.5637920966
 N          4.7975696106       -0.6992012668       -0.4818368385
 C          5.7597662257       -1.7179868622       -0.4693374814
 C          6.9657400150       -1.5644446783       -1.1497953830
 C          7.9129715699       -2.5688176636       -1.1239368389
 C          7.6877974999       -3.7526202922       -0.4322597281
 C          8.7066151014       -4.8513013870       -0.4283318246
 C          6.4806386714       -3.9008662873        0.2410267523
 C          5.5294263433       -2.9009402882        0.2310606539
 C          5.2021727111        0.6422692308       -0.4386022408
 C          6.2878044827        1.0312064082        0.3442478195
 C          6.6833075550        2.3532085825        0.3793250318
 C          6.0096511510        3.3270370742       -0.3493282956
 C          6.4330667352        4.7628390555       -0.2816761179
 C          4.9261287693        2.9338834928       -1.1250540604
 C          4.5287132352        1.6128154223       -1.1790295947
 C          3.0011753203       -2.1057348593       -1.3098796437
 C          1.6560244677       -2.3939236409       -1.4389667496
 C          0.7254832034       -1.5688899862       -0.8250668477
 C         -6.9616232384       -1.5722205114       -1.1569614073
 C         -7.9042863648       -2.5807072347       -1.1326733234
 H         -9.3438345770       -4.8090281784       -1.2853054590
 H         -9.3425120193       -4.7303732945        0.4754735410
 H         -8.2394394889       -5.8284579841       -0.3492775753
 H         -6.2706975747       -4.8154892241        0.7847527616
 H         -4.5938864268       -3.0254712237        0.7659341273
 H         -3.7003985835        1.3319788598       -1.8056158727
 H         -4.4074085642        3.6736617481       -1.7094951251
 H         -6.0138992853        5.2378416410        0.5909013926
 H         -6.1281313444        5.3008091461       -1.1674101162
 H         -7.5352001198        4.8343158304       -0.1994084697
 H         -7.5412824941        2.6237731155        0.9871194279
 H         -6.8208106258        0.2803044971        0.9178156464
 H         -3.7300587060       -2.7220031291       -1.8149982314
 H         -1.3347193980       -3.2367162623       -2.0343548219
 H         -2.8343379658        0.6483607669        0.6737903202
 H         -0.0169599586       -1.6980758111        2.5914087121
 H         -0.0214947767        1.1905934520        5.7662061249
 H         -0.0060080741        3.0413237759        4.1232020940
 H          0.0156873756        4.5763332072        2.0163646977
 H          0.0381173520        5.5719511464       -0.2490957751
 H          0.0226747046        1.6636047094       -2.0241632331
 H          2.8345771102        0.6427146196        0.6838290621
 H          7.1543052202       -0.6533536264       -1.6985854506
 H          8.8424915634       -2.4321626482       -1.6579074627
 H          9.7037298259       -4.4572774234       -0.6096813381
 H          8.7026298121       -5.3791937935        0.5228623933
 H          8.4807080638       -5.5740018486       -1.2135035985
 H          6.2865387026       -4.8105808525        0.7911228268
 H          4.6020238052       -3.0274932847        0.7705033878
 H          6.8179824280        0.2895772264        0.9236800244
 H          7.5280497945        2.6365434366        0.9909361645
 H          6.0332873033        5.2300331580        0.6192925317
 H          7.5174128952        4.8445738488       -0.2463216416
 H          6.0652233158        5.3166521967       -1.1419875137
 H          4.3900066173        3.6700305068       -1.7073103840
 H          3.6937052492        1.3253980924       -1.8014594387
 H          3.7326801000       -2.7249485492       -1.8076404172
 H          1.3374104517       -3.2382343350       -2.0313449282
 H         -7.1518988717       -0.6631387064       -1.7084945366
 H         -8.8327633873       -2.4493904201       -1.6698353050
