  75
 
 N         -7.4492960811        2.4832097000        1.9709729607
 C         -6.3519189449        2.4869586613        1.5855311733
 C         -5.0537411845        2.4878260235        1.1320933122
 C         -4.0391976667        1.7093462848        1.7973361089
 C         -2.7701763971        1.6945794207        1.3356791308
 C         -2.3924656603        2.4684477258        0.1867961175
 N         -1.1097257930        2.3989860489       -0.3046498960
 C         -0.5009028372        3.5149440410       -0.8738257189
 C          0.3676785469        3.3657659719       -1.9616514503
 C          0.9624075682        4.4724641067       -2.5279732054
 C          0.6983209286        5.7424678994       -2.0317918885
 C         -0.1712915146        5.8965658059       -0.9607532765
 C         -0.7695440781        4.7972979928       -0.3818546364
 C         -0.4152059232        1.1953830523       -0.2259851878
 C         -1.0912950072       -0.0149242402       -0.4298871598
 C         -0.4147819554       -1.2167306148       -0.2994900312
 N         -1.0848500805       -2.4232366829       -0.5128999114
 C         -2.3219439652       -2.7677862919        0.0065075663
 C         -3.1541607686       -2.0614579793        0.8626643119
 C         -4.3398767268       -2.6568409219        1.2499772557
 C         -4.6915564301       -3.9306616859        0.8111870625
 C         -3.8553071306       -4.6498594720       -0.0197865802
 C         -2.6608622018       -4.0698944371       -0.4248642541
 C         -1.5781828993       -4.5230909975       -1.2538694123
 C         -1.3522966644       -5.6911822249       -1.9685872610
 C         -0.1922720630       -5.7991453845       -2.7102400829
 C          0.7251462270       -4.7528545364       -2.7582408341
 C          0.5213033947       -3.5804685097       -2.0547975701
 C         -0.6271329837       -3.4780331685       -1.2830075083
 C          0.9439708555       -1.2246806652        0.0286921460
 C          1.6203348900       -0.0159762390        0.2223494156
 N          2.9797318316       -0.0241736345        0.5445070656
 C          3.9550161801        0.7563397098       -0.0504622490
 C          3.8511179439        1.6628053218       -1.0954603232
 C          5.0042589991        2.2947152501       -1.5208055557
 C          6.2384622541        2.0296066874       -0.9329237151
 C          6.3527463918        1.1100542181        0.0907166520
 C          5.2074478777        0.4639196002        0.5357225152
 C          4.9668853737       -0.5348219127        1.5399962313
 C          5.7888569378       -1.1906479464        2.4464114507
 C          5.2203939315       -2.0986742722        3.3174636616
 C          3.8491465699       -2.3415546278        3.3031105434
 C          3.0112147257       -1.7003953065        2.4103026080
 C          3.5806819638       -0.8086609536        1.5129574785
 C          0.9459483510        1.1873389013        0.1045246772
 C         -3.3908930412        3.2743630576       -0.4553903378
 C         -4.6672982331        3.2755759579       -0.0130991453
 H         -4.3186793153        1.1587756666        2.6829029318
 H         -1.9943968137        1.1540911778        1.8598950479
 H          0.5435392006        2.3788471758       -2.3645195600
 H          1.6288261889        4.3493094427       -3.3684393940
 H          1.1654433599        6.6059206923       -2.4789258962
 H         -0.3756481900        6.8816678912       -0.5695705539
 H         -1.4267881215        4.9094368192        0.4674669885
 H         -2.1262968596       -0.0012965875       -0.7334070381
 H         -2.8921689281       -1.0799284113        1.2248622303
 H         -5.0071953350       -2.1203876523        1.9076557829
 H         -5.6279647630       -4.3602105725        1.1335400023
 H         -4.1188435394       -5.6435225925       -0.3488252839
 H         -2.0743766900       -6.4930986560       -1.9466083323
 H          0.0043570203       -6.7000772731       -3.2717269820
 H          1.6142624983       -4.8563737311       -3.3623506696
 H          1.2302196196       -2.7691089443       -2.1219133828
 H          1.4703421933       -2.1593467338        0.1296266897
 H          2.9053356783        1.8678627495       -1.5724827290
 H          4.9459374665        3.0083129148       -2.3293243674
 H          7.1161116407        2.5460152075       -1.2916248857
 H          7.3110944587        0.8914892532        0.5365895491
 H          6.8486263132       -0.9871241027        2.4692312909
 H          5.8415917693       -2.6215282624        4.0290238409
 H          3.4291452492       -3.0430179204        4.0085108217
 H          1.9471785565       -1.8813510150        2.4266897792
 H          1.4545870042        2.1178564657        0.3031330925
 H         -3.1089151438        3.8346478962       -1.3350234778
 H         -5.4296735053        3.8535257986       -0.5127219095
