53

C      2.360753    3.895450    0.261014
C      2.809433    3.253558    1.410721
C      2.626237    1.875769    1.558584
C      1.995383    1.112479    0.559023
P      1.791069   -0.674962    0.849654
C      3.426839   -1.368300    0.437624
C      3.718664   -2.672049    0.877096
C      4.949569   -3.271251    0.595514
C      5.912011   -2.576489   -0.130463
C      5.643284   -1.284944   -0.574568
C      4.411233   -0.685931   -0.292912
C      0.717778   -1.249528   -0.535670
C      1.206313   -1.812427   -1.695977
S     -0.038783   -2.240310   -2.787981
C     -1.243835   -1.687347   -1.709195
C     -0.712634   -1.186685   -0.539246
P     -1.735231   -0.505379    0.845292
C     -2.066697    1.177424    0.224082
C     -2.666036    1.446866   -1.015570
C     -2.881137    2.761411   -1.439696
C     -2.497671    3.828012   -0.631446
C     -1.900087    3.581319    0.601050
C     -1.687270    2.266867    1.025200
C     -3.333240   -1.374716    0.709337
C     -4.563387   -0.704465    0.802583
C     -5.774649   -1.400233    0.729569
C     -5.778504   -2.784118    0.584499
C     -4.572105   -3.474174    0.525720
C     -3.362687   -2.776645    0.599084
C      1.550761    1.780662   -0.590840
C      1.731191    3.159802   -0.738501
H      2.497396    4.967010    0.144627
H      3.300836    3.822082    2.195779
H      2.986176    1.399937    2.469377
H      2.983326   -3.239708    1.445011
H      5.153425   -4.280297    0.944168
H      6.869832   -3.040394   -0.350350
H      6.391630   -0.738535   -1.143058
H      4.238781    0.320977   -0.664951
H      2.232567   -1.997375   -1.981320
H     -2.282140   -1.764265   -2.000953
H     -2.980978    0.636943   -1.667975
H     -3.347373    2.949207   -2.403355
H     -2.661039    4.849870   -0.962723
H     -1.588650    4.409251    1.232343
H     -1.203938    2.103475    1.986827
H     -4.603001    0.373742    0.942899
H     -6.714113   -0.857388    0.795677
H     -6.719726   -3.324613    0.531216
H     -4.567665   -4.556902    0.430425
H     -2.436207   -3.348110    0.570598
H      1.046357    1.249003   -1.393234
H      1.367937    3.656424   -1.634607
