  88
 
 O          8.8351670097       -2.7465813233       -0.2300246979
 C          8.0494238254       -1.8496935364        0.0850373013
 C          8.5618874683       -0.5101765833        0.4763974428
 C          8.0397193473        0.1837322635        1.5664744819
 C          8.5720540459        1.4073417282        1.9303353454
 C          9.6234173965        1.9535229454        1.2110584444
 C         10.1574001099        1.2625012892        0.1350732448
 C          9.6379760618        0.0323620304       -0.2227588215
 C          6.6005869646       -2.0569712229        0.0883083549
 C          6.1156425978       -3.3766752907        0.1103844277
 C          4.7732458143       -3.6459397573        0.1109939430
 C          3.8330628640       -2.6006051694        0.0626164306
 N          2.5285013075       -2.8393250585        0.0637719044
 C          1.6553491265       -1.8286517904        0.0015284920
 C          0.2524089396       -2.0908656247       -0.0090513202
 C         -0.2028269059       -3.4193874417        0.0675753928
 C         -1.5391896659       -3.7116235868        0.0798000819
 C         -2.4714056456       -2.6659983003       -0.0033484740
 N         -3.8584113503       -2.9565196394        0.0217110369
 C         -4.4390623226       -3.6890339430       -1.0080240094
 C         -3.7231332029       -4.0758137677       -2.1380280235
 C         -4.3323530520       -4.8070675602       -3.1431411436
 C         -5.6675070797       -5.1580249491       -3.0453536153
 C         -6.4030917084       -4.7579606219       -1.9412155832
 C         -5.8007158175       -4.0251021383       -0.9328185127
 O         -6.5899147448       -3.6401197216        0.1186145349
 C         -6.0104494692       -2.8935619926        1.1107082509
 C         -6.8253382435       -2.4973935194        2.1578070062
 C         -6.3016676951       -1.7612616388        3.2082965571
 C         -4.9565560301       -1.4364537098        3.2120587272
 C         -4.1359024786       -1.8290555439        2.1687516600
 C         -4.6488687214       -2.5476885613        1.0917050879
 C         -2.0455948283       -1.3572961352       -0.0970157959
 C         -0.6839256617       -1.0300904079       -0.0907306045
 C         -0.2082133473        0.3320611467       -0.1465844037
 C         -1.0734522004        1.4326820079       -0.2110559209
 C         -0.5936525862        2.7259394539       -0.2198608688
 N         -1.5018996878        3.8126387025       -0.2488185672
 C         -1.5199390583        4.6832351853       -1.3342348878
 C         -0.7286920273        4.4805070387       -2.4619281716
 C         -0.7699063870        5.3695035505       -3.5223479962
 C         -1.6079036128        6.4700444864       -3.4836386296
 C         -2.4245531703        6.6717586051       -2.3825097409
 C         -2.3888166695        5.7864612013       -1.3186540891
 O         -3.2402461158        6.0302069052       -0.2734722981
 C         -3.2322767106        5.1475563458        0.7744664597
 C         -4.1117309632        5.3983610165        1.8142274197
 C         -4.1423505207        4.5618756578        2.9182550324
 C         -3.2780275379        3.4832945781        2.9826221945
 C         -2.3959632584        3.2267462671        1.9469281120
 C         -2.3690395345        4.0401132419        0.8168403240
 C          0.7864100640        2.9707314430       -0.1874575769
 C          1.6526029509        1.9101754454       -0.1479081035
 C          1.1829332492        0.5882276544       -0.1196612854
 C          2.1284909286       -0.4902068814       -0.0547731126
 N          3.4281224212       -0.2356319100       -0.0427479822
 C          4.3178616205       -1.2424947373        0.0108260370
 C          5.6861667387       -1.0011420191        0.0245619049
 H          7.2319843858       -0.2493754440        2.1387752197
 H          8.1652222528        1.9361328946        2.7799290205
 H         10.0315503200        2.9126197209        1.4941910509
 H         10.9827685193        1.6799110858       -0.4228835894
 H         10.0496939692       -0.5240112013       -1.0528818220
 H          6.8398966090       -4.1783018071        0.1412756652
 H          4.4043977724       -4.6598368006        0.1439860854
 H          0.5403369542       -4.1989470342        0.1313141347
 H         -1.8851195685       -4.7310898821        0.1582299926
 H         -2.6853000024       -3.7974676675       -2.2284529747
 H         -3.7549696953       -5.0991112013       -4.0065343949
 H         -6.1421023711       -5.7316056619       -3.8255445182
 H         -7.4489710057       -5.0013648252       -1.8418594340
 H         -7.8651200165       -2.7822652908        2.1311700900
 H         -6.9428014853       -1.4547356678        4.0193258251
 H         -4.5345344058       -0.8773820679        4.0324968117
 H         -3.0862620789       -1.5840493219        2.1910370160
 H         -2.7949990134       -0.5857195710       -0.1718185805
 H         -2.1411390145        1.2885221378       -0.2509499673
 H         -0.0815959820        3.6192108839       -2.5082994356
 H         -0.1430367884        5.1932041689       -4.3826094759
 H         -1.6381738526        7.1657150374       -4.3070169347
 H         -3.1018007425        7.5092545055       -2.3284862413
 H         -4.7587230804        6.2578865185        1.7390701013
 H         -4.8317252417        4.7619542532        3.7229159415
 H         -3.2806941627        2.8349848151        3.8449181735
 H         -1.7155197657        2.3935555825        2.0177380793
 H          1.1506642541        3.9866641388       -0.1873846944
 H          2.7205992428        2.0619818197       -0.1216572989
 H          6.0231937493        0.0215069754       -0.0450663332
