68
 xtb: 6.7.1 (edcfbbe)
C            6.25776371667408       -0.55625246099086        0.01010205308749
C            5.04879839482846       -1.49683248486726        0.01009515081256
C            5.12905458532966       -2.37657709286531       -1.24660239886090
C            5.12980704890698       -2.37761084118769        1.26593552689014
C            3.72645574982917       -0.74435091376987        0.01043917928642
C            3.63538475341352        0.64053051118204        0.00514319833640
C            2.40673105140528        1.27010481639485        0.00300187697972
C            1.21820482843149        0.54123485617311        0.00967985830849
C            1.28160447697980       -0.85467458471496        0.00945378535410
C            2.53081129379770       -1.45513050864750        0.01122691578543
C            0.03478821804855       -1.72172719071198        0.00106183790733
C            0.03722072103965       -2.60239736789778        1.26474807968773
C            0.05475614155095       -2.60338291588948       -1.26178281769453
C           -1.23336134468337       -0.88605207620599       -0.00818458720528
C           -2.46708525520271       -1.52472307640678       -0.00932511250482
C           -3.67682949268202       -0.84561397291898       -0.00957992315375
C           -5.02609402612461       -1.54866304513506       -0.00893888858624
C           -4.90025382546375       -3.07532183288567       -0.01183594409255
C           -5.80887666632094       -1.13201909403486       -1.26316608430922
C           -5.80515869872476       -1.13679355383616        1.24925407814150
C           -3.61946123034998        0.54458298271256       -0.00597994838008
C           -2.41280980835043        1.20880772260900       -0.00433514152711
C           -1.20466487577740        0.50905588691350       -0.01008505297968
N           -0.00214350588887        1.20156067635749       -0.00068102181805
C           -0.02138888248401        2.62037439630499       -0.00240895188592
C            0.08432282751255        3.31973845972527        1.20188736751960
C            0.06152988998937        4.70163801211475        1.20334693027358
C           -0.06943868838938        5.38514149473055       -0.00565793143864
C           -0.06434149745409        6.88451617165508       -0.00110605731025
F           -0.66615443940450        7.41015452272432        1.08192004445086
F           -0.67664187988210        7.42640890062193       -1.06767957125421
F            1.18902400714946        7.39607675935889       -0.00161773979271
C           -0.16883774031850        4.69562670487328       -1.21346280333756
C           -0.14753672427155        3.31336431252591       -1.20810970369622
H            6.26251872868747        0.07474572598476        0.88885853055450
H            6.26298913138823        0.07407595588952       -0.88364678869867
H            7.17453484972462       -1.14297741581767        0.00327905942425
H            4.33166836014665       -3.11449107748676       -1.27325372559222
H            5.04789403431608       -1.76313187040746       -2.14863446287808
H            6.08059485976705       -2.90466418291677       -1.28193910124451
H            6.08075973902701       -2.90529311006110        1.28685268844880
H            4.33177758998120       -3.11457830963494        1.27896079976851
H            5.04885272061194       -1.76364603822641        2.15431898693689
H            4.51863542048171        1.25792914346721        0.00006988848945
H            2.37156608003983        2.34933350738593       -0.00187647221098
H            2.57480453996457       -2.53269489613500        0.00335729158733
H            0.93254094688459       -3.22628874045488        1.29647258325674
H            0.03169437398088       -1.97558438263806        2.15364103405069
H           -0.82689829089602       -3.25246947782625        1.29076615454740
H            0.04494014704582       -1.97596695043918       -2.15284625413902
H           -0.82418476205582       -3.24931939357769       -1.29530403838242
H            0.93534392117999       -3.23002072600525       -1.28970099818365
H           -2.47310014172156       -2.60104082960143       -0.00245003529290
H           -4.37704922515168       -3.42468812950933       -0.89082652205345
H           -5.89346552772555       -3.52053646632373       -0.00361441182767
H           -4.37703363797826       -3.42560420970047        0.88363198921273
H           -6.77103273604084       -1.63887545987291       -1.28560561016849
H           -5.25076071807991       -1.40285374824886       -2.15404646291273
H           -5.98492405926914       -0.06185636220633       -1.27729974619631
H           -5.98441989243184       -0.06328422127626        1.27421759134610
H           -6.76987130448416       -1.64062263658165        1.28183669994702
H           -5.24893808224795       -1.40470815502745        2.14916629246926
H           -4.52535413024835        1.13178505497748       -0.00045523189000
H           -2.40542421063679        2.28853894918354        0.00145031834044
H            0.03725810615020        2.77151745448377        2.13462189673418
H           -0.00608113208381        5.24606377426096        2.13775732685552
H           -0.12259702538318        5.24234289305489       -2.14121348921642
H           -0.08244748976265        2.76807325205812       -2.13596614789795
