  90
 
 N         -2.0777593244       -8.4870521722       -0.1744277186
 C         -1.1659574867       -7.7893502395       -0.1673081894
 C          0.0001370428       -6.9963055886       -0.1584005356
 C          1.1662846857       -7.7892747502       -0.1671030521
 N          2.0781353254       -8.4869104881       -0.1744208686
 C          0.0000927601       -5.6280779325       -0.1423215832
 C         -1.1665190588       -4.7560269265       -0.1299888461
 C         -2.5241878950       -5.0347536857       -0.1285530602
 C         -3.4228222115       -3.9810594652       -0.1050553519
 C         -2.9997623684       -2.6509221035       -0.0883311907
 C         -3.9748810791       -1.5595192853       -0.0596548675
 C         -5.1464303652       -1.6623209194        0.6921083846
 C         -6.0600031977       -0.6327295480        0.7319703810
 C         -5.8430273805        0.5387356155        0.0020639372
 N         -6.7674369631        1.5790319436        0.0349247144
 C         -8.1367020623        1.3040367672        0.1601509177
 C         -8.9483494305        2.1173482269        0.9496506875
 C        -10.2985703274        1.8491810555        1.0647627820
 C        -10.8577193889        0.7673200516        0.4045505016
 C        -10.0546206578       -0.0448880036       -0.3792465641
 C         -8.7048605433        0.2198073973       -0.5072623284
 C         -6.3391195547        2.9106278045       -0.0498429388
 C         -7.0851803180        3.8453219163       -0.7667129344
 C         -6.6665109139        5.1595687951       -0.8411115668
 C         -5.4991967054        5.5609252044       -0.2123901078
 C         -4.7534445809        4.6354780280        0.4991533890
 C         -5.1682498708        3.3207723576        0.5867076944
 C         -4.6772784388        0.6426333183       -0.7608838121
 C         -3.7596118238       -0.3841031422       -0.7809002527
 C         -1.6269412765       -2.3709658524       -0.0959641859
 C         -0.7288693000       -3.4118346403       -0.1125859846
 C          0.7289271722       -3.4117892429       -0.1125559264
 C          1.6269415091       -2.3708677225       -0.0959211306
 C          2.9997725117       -2.6507543774       -0.0882048108
 C          3.9748581188       -1.5593186567       -0.0594996427
 C          5.1462657169       -1.6620458295        0.6924903293
 C          6.0598483355       -0.6324670102        0.7323840107
 C          5.8430309765        0.5388920841        0.0022663145
 N          6.7674836723        1.5791677875        0.0351095935
 C          6.3391094060        2.9107505745       -0.0495990151
 C          5.1682543317        3.3207908503        0.5870484501
 C          4.7533439555        4.6354679195        0.4995721827
 C          5.4989833949        5.5609949660       -0.2119853870
 C          6.6662809407        5.1597429756       -0.8408049024
 C          7.0850470931        3.8455206835       -0.7664955127
 C          8.1367247125        1.3041089388        0.1603231866
 C          8.9485456173        2.1176355359        0.9494271632
 C         10.2987354416        1.8493214229        1.0645691527
 C         10.8576942763        0.7670903005        0.4048046934
 C         10.0544302714       -0.0453270559       -0.3786052299
 C          8.7047081685        0.2195246729       -0.5066735595
 C          4.6774059656        0.6427329415       -0.7608748350
 C          3.7597135626       -0.3839857757       -0.7809138799
 C          3.4229105887       -3.9808662623       -0.1048926777
 C          2.5243365480       -5.0346105396       -0.1284195575
 C          1.1666544110       -4.7559563409       -0.1299312949
 H         -2.8890829041       -6.0492447760       -0.1481496607
 H         -4.4806964883       -4.1955074766       -0.1226284287
 H         -5.3237384995       -2.5480297783        1.2838828000
 H         -6.9487532717       -0.7224058118        1.3389903665
 H         -8.5119415540        2.9563232061        1.4717548760
 H        -10.9165269099        2.4851609302        1.6812457490
 H        -11.9124455325        0.5589790304        0.4996027874
 H        -10.4835914011       -0.8865342079       -0.9027087872
 H         -8.0821396976       -0.4077628768       -1.1280044200
 H         -7.9912640828        3.5322402275       -1.2644829241
 H         -7.2523452164        5.8734906683       -1.4010091798
 H         -5.1735968074        6.5880486280       -0.2754271938
 H         -3.8457908036        4.9411389950        0.9985223587
 H         -4.5920473346        2.6035614982        1.1529288419
 H         -4.5036538584        1.5341836262       -1.3453775440
 H         -2.8777364252       -0.2903656230       -1.3974578300
 H         -1.2831673290       -1.3480258218       -0.0618797681
 H          1.2831215999       -1.3479392242       -0.0619324584
 H          5.3234257055       -2.5476723445        1.2844322021
 H          6.9484770950       -0.7220686732        1.3395915093
 H          4.5921429178        2.6035157095        1.1532813670
 H          3.8457065254        4.9410450220        0.9990223424
 H          5.1733083463        6.5880985129       -0.2749586771
 H          7.2520166711        5.8737268897       -1.4007263156
 H          7.9911167532        3.5325237783       -1.2643439162
 H          8.5123050161        2.9568886960        1.4712229995
 H         10.9168195436        2.4854873324        1.6807329664
 H         11.9123893921        0.5586168087        0.4999125503
 H         10.4832347785       -0.8872822189       -0.9017076607
 H          8.0818795621       -0.4082168191       -1.1271336004
 H          4.5039080476        1.5342176550       -1.3455075252
 H          2.8779370192       -0.2903085342       -1.3976233641
 H          4.4807987994       -4.1952516993       -0.1223892169
 H          2.8892893537       -6.0490829076       -0.1478734098
