  108
 
 C         -1.2482678601       -5.0381207041       -3.2125124035
 C         -0.5807037751       -6.3790670171       -2.9306955409
 C         -1.5107461654       -7.3096306766       -2.1559796965
 C         -0.9104859853       -8.6836134195       -1.8541188830
 C          0.3697687213       -8.6874265225       -1.0162055251
 C          0.2201885434       -8.1044259740        0.3924922178
 N          0.2270431828       -6.6623440373        0.4128837297
 C          1.3093489103       -5.8909339111        0.0151626206
 O          2.3698043393       -6.3585872939       -0.3651756713
 C          0.9112735634       -4.5019777717        0.2184670028
 C          1.8264037544       -3.4247557243        0.2678542822
 C          1.5425401230       -2.2385162066        0.9880797038
 C          2.4231984864       -1.1893581631        0.9959600465
 C          3.6471201054       -1.2596542274        0.3132279913
 C          4.5780185474       -0.1379704956        0.3244493820
 C          5.9606438440       -0.3474348663        0.3281932480
 C          6.8413275509        0.7119199025        0.3368392172
 C          6.3645208281        2.0222607896        0.3342110969
 N          7.2545316570        3.0993931446        0.3362619187
 C          7.2058998135        4.1899396804       -0.5114647197
 C          6.3420136047        4.4533554339       -1.5649886682
 C          6.5353324001        5.6191902506       -2.2817778053
 C          7.5668713643        6.5017218718       -1.9709606150
 C          8.4471203919        6.2309302242       -0.9413995226
 C          8.2726819372        5.0662852344       -0.2071146077
 C          8.9925767340        4.4700992352        0.8846865637
 C         10.1021157114        4.8604231393        1.6213133817
 C         10.5331680823        4.0451560329        2.6497385331
 C          9.8616544731        2.8643543526        2.9569680075
 C          8.7544549949        2.4552726242        2.2378841379
 C          8.3336259301        3.2561142733        1.1856710281
 C          4.9881568505        2.2449647433        0.3289650632
 C          4.1130601808        1.1808901164        0.3286193108
 C          3.9536320966       -2.4516045222       -0.3627239201
 C          3.0797671514       -3.5059682737       -0.3822398033
 C         -0.4739854617       -4.5090633942        0.6044710891
 C         -1.4205995058       -3.4645147492        0.4861407699
 C         -1.1669305503       -2.3151669265       -0.3024722480
 C         -2.0856447295       -1.3031339894       -0.3907128380
 C         -3.3183073690       -1.3765560557        0.2759975468
 C         -4.2894551428       -0.2950473029        0.1788111180
 C         -5.6636372823       -0.5563518274        0.1715385219
 C         -6.5826686969        0.4653026726        0.0792092767
 C         -6.1559377118        1.7909536304        0.0037125085
 N         -7.0854956861        2.8296581577       -0.0811037210
 C         -7.0516958694        3.8740084486       -0.9859739669
 C         -6.1656329691        4.1145941147       -2.0264230065
 C         -6.3806123959        5.2315341550       -2.8117475300
 C         -7.4547418364        6.0873101617       -2.5810207969
 C         -8.3564944551        5.8370873550       -1.5649101124
 C         -8.1606805368        4.7218218708       -0.7625943518
 C         -8.8918750891        4.1570362210        0.3383927712
 C        -10.0385144159        4.5421783360        1.0187459368
 C        -10.4706771275        3.7675067770        2.0776581424
 C         -9.7642824036        2.6333242477        2.4701605278
 C         -8.6196468053        2.2305315233        1.8083062412
 C         -8.1967468465        2.9886611591        0.7257746836
 C         -4.7886730680        2.0654843994        0.0142555481
 C         -3.8746331964        1.0381283282        0.0930391677
 C         -3.5926367828       -2.5345407294        1.0215371397
 C         -2.6816973057       -3.5522353477        1.1205719807
 C         -0.8453295611       -5.8975783297        0.8531020572
 O         -1.8746216740       -6.3748197861        1.2992561285
 H         -2.1414104984       -5.1743553782       -3.8191679615
 H         -0.5693549753       -4.3748150683       -3.7442952025
 H         -1.5408781800       -4.5549399676       -2.2818522586
 H         -0.2994788183       -6.8529123951       -3.8746073159
 H          0.3349198073       -6.2034349715       -2.3647246013
 H         -2.4182565190       -7.4624617889       -2.7473812758
 H         -1.8182862581       -6.8296063321       -1.2274594132
 H         -1.6670603244       -9.2779895515       -1.3350297009
 H         -0.6897111765       -9.1852082688       -2.8005180188
 H          1.1671487738       -8.1526165315       -1.5316991744
 H          0.6935021576       -9.7249168611       -0.9062862545
 H         -0.7204429327       -8.4193082217        0.8519276118
 H          1.0569636750       -8.4528990537        1.0081623461
 H          0.6320623963       -2.1784250919        1.5642801188
 H          2.1903388981       -0.3077378247        1.5754076049
 H          6.3470492883       -1.3552196142        0.3443423937
 H          7.9062579138        0.5341551188        0.3252280840
 H          5.5522423815        3.7662890796       -1.8284198192
 H          5.8739039642        5.8481667165       -3.1041674663
 H          7.6829527252        7.4037925983       -2.5528025752
 H          9.2583564577        6.9052225352       -0.7125649862
 H         10.6110638022        5.7850232997        1.3949204365
 H         11.3962017485        4.3286400408        3.2332919285
 H         10.2108680572        2.2561999909        3.7781365490
 H          8.2295504477        1.5487517430        2.4983088854
 H          4.6138587137        3.2577400494        0.3445436861
 H          3.0504495735        1.3714691534        0.3104836807
 H          4.8846030566       -2.5272535400       -0.9047718979
 H          3.3292804986       -4.4120728760       -0.9099697246
 H         -0.2499240825       -2.2576254713       -0.8683155042
 H         -1.8749974327       -0.4517387518       -1.0214580033
 H         -6.0115764723       -1.5777197410        0.1987899873
 H         -7.6388315116        0.2448675227        0.0382946641
 H         -5.3426102999        3.4461924649       -2.2287670826
 H         -5.7026151226        5.4421320739       -3.6255050615
 H         -7.5869662297        6.9512003021       -3.2150132363
 H         -9.2002446292        6.4893034321       -1.3980967604
 H        -10.5749222115        5.4320483570        0.7262646918
 H        -11.3621254433        4.0475746534        2.6185776227
 H        -10.1157015754        2.0575079245        3.3133945354
 H         -8.0684457104        1.3620094586        2.1351606720
 H         -4.4533952317        3.0915597864       -0.0126735540
 H         -2.8210473805        1.2710410156        0.1297260359
 H         -4.5298025276       -2.6115005614        1.5525194091
 H         -2.9069627197       -4.4330428912        1.6996810245
