  62
 
 C         -8.1366224963        2.9198948973        0.0552252928
 C         -8.3802262648        1.7444157548        0.7484111146
 C         -7.4527809471        0.7208301331        0.7380755159
 C         -6.2622840300        0.8589660725        0.0220015983
 N         -5.3215827750       -0.1765279870        0.0054874545
 C         -5.7510513598       -1.5085495922       -0.0185492950
 C         -5.0613969832       -2.4863255150        0.7006045754
 C         -5.4887011012       -3.7996117011        0.6728404784
 C         -6.6076273163       -4.1586671033       -0.0625559144
 C         -7.2974101195       -3.1909884228       -0.7763236081
 C         -6.8749072247       -1.8759024330       -0.7605999503
 C         -3.9567493394        0.1163436185        0.0110200396
 C         -3.0552342977       -0.6759738807       -0.7052820164
 C         -1.7089370742       -0.3868619315       -0.6954057000
 C         -1.2072015406        0.7077057560        0.0154331097
 C          0.2218168327        1.0171097054        0.0133567976
 C          0.6698056021        2.3429935803        0.0156928156
 C          2.0129579082        2.6455385871       -0.0029367140
 C          2.9859736696        1.6390626007       -0.0090217308
 N          4.2891669292        1.9098782305       -0.0225811340
 C          5.1759944188        0.9345301294       -0.0193809186
 C          4.7242264156       -0.4439067272        0.0013230366
 N          3.4495890229       -0.7254214969        0.0074412693
 C          2.5350543242        0.2612732058       -0.0001603057
 C          1.1729038039       -0.0052678701        0.0028052068
 C          5.8913069530       -1.2936058261        0.0122044643
 C          6.1130579664       -2.6556692196        0.0365646584
 C          7.4411149112       -3.1076881413        0.0415916046
 C          8.5249401463       -2.2555585636        0.0222376987
 C          8.3326991783       -0.8550865018       -0.0031387312
 C          9.3140220984        0.1645835730       -0.0249012248
 C          8.9344209223        1.4904585658       -0.0458425522
 C          7.5958870362        1.9067859194       -0.0466882349
 C          6.6087972511        0.9371391662       -0.0262476793
 C          7.0063384791       -0.4247106050       -0.0061330679
 C         -2.1163542582        1.4967840758        0.7265411999
 C         -3.4627972084        1.2073176701        0.7316008199
 C         -6.0238287075        2.0430868262       -0.6781475951
 C         -6.9548463364        3.0632105719       -0.6551314521
 H         -8.8625704472        3.7186920629        0.0683020270
 H         -9.2957870495        1.6268678450        1.3091674990
 H         -7.6385046951       -0.1885192991        1.2904469202
 H         -4.1975479032       -2.2059089504        1.2851780376
 H         -4.9491652228       -4.5462039641        1.2367978939
 H         -6.9395618113       -5.1857080642       -0.0793045580
 H         -8.1662735303       -3.4635728334       -1.3571149117
 H         -7.4056584200       -1.1259087971       -1.3283743375
 H         -3.4242952800       -1.5113976389       -1.2819703182
 H         -1.0341669979       -0.9971587830       -1.2766283826
 H         -0.0492370565        3.1480256418        0.0009045830
 H          2.3512562572        3.6706116659       -0.0172486817
 H          0.8680867931       -1.0402448392        0.0282466371
 H          5.2952599330       -3.3602357607        0.0519327321
 H          7.6155782251       -4.1743828137        0.0614870908
 H          9.5284536444       -2.6559923869        0.0269392384
 H         10.3610767999       -0.1008000246       -0.0244598375
 H          9.7022331134        2.2516764645       -0.0621643986
 H          7.3507162635        2.9580880978       -0.0627465393
 H         -1.7544617865        2.3288911863        1.3115855602
 H         -4.1441907103        1.8166006259        1.3070834004
 H         -5.1104053531        2.1511010174       -1.2442806108
 H         -6.7601613070        3.9730730516       -1.2036193506
