  112
 
 C         -9.2935099931       -3.5253734010       -2.6847590792
 C         -8.7228056010       -3.4983363690       -1.2597942050
 C         -8.0528562668       -4.8425472138       -0.9417103391
 C         -9.8883829155       -3.3077324506       -0.2852229943
 C         -7.6879512439       -2.3872205114       -1.1577577187
 C         -6.5592050114       -2.4356383747       -1.9864139356
 C         -5.5682328857       -1.4750859353       -1.9624841679
 C         -5.7021501328       -0.4244098565       -1.0687500795
 C         -6.8407075949       -0.3382350445       -0.2414370943
 C         -7.8224518569       -1.3187764896       -0.2863944108
 C         -6.7056354296        0.8768495747        0.5152842807
 C         -7.4803411775        1.4754274284        1.4957212388
 C         -7.0657839619        2.6649323903        2.0806433837
 C         -7.9358677066        3.3039629471        3.1539987378
 C         -8.0848504317        2.3238439570        4.3264332544
 C         -9.3162140610        3.6160373065        2.5587650149
 C         -7.3491219767        4.6089482441        3.6990610697
 C         -5.8535092582        3.2237250085        1.6675851434
 C         -5.0608114821        2.6480692196        0.6911672089
 C         -5.4978583983        1.4761463204        0.0983691371
 N         -4.8954001602        0.6796143665       -0.8595906464
 C         -3.6820871672        0.9516013028       -1.4920407173
 C         -2.6935068343       -0.0284342719       -1.5772726299
 C         -1.4786508760        0.2594560389       -2.1652408470
 C         -1.2317374270        1.5268019498       -2.6893844323
 C          0.0588702094        1.8792013079       -3.3333705537
 O          0.1013381654        2.5742415688       -4.3309670494
 C          1.2929329905        1.3756580361       -2.6868756738
 C          1.3516237445        1.0636326500       -1.3283633151
 C          2.5398662416        0.6643640505       -0.7543632488
 C          3.6984308821        0.5652726836       -1.5257978055
 N          4.9006663845        0.1782390966       -0.9382272957
 C          5.0820634678       -0.8912457231       -0.0786970960
 C          4.1941818587       -1.8700608517        0.3326114955
 C          4.6574672871       -2.8618511591        1.1786668467
 C          5.9812845871       -2.9167587991        1.6220096013
 C          6.4856057625       -4.0054319980        2.5589527653
 C          5.3939894896       -5.0019350551        2.9584004517
 C          7.6094490596       -4.7857201392        1.8622562832
 C          7.0238542806       -3.3516413211        3.8396950232
 C          6.8687147165       -1.9441418823        1.1795133188
 C          6.4313894729       -0.9392297194        0.3323468040
 C          7.0917907672        0.1697988798       -0.3016452712
 C          8.3932657064        0.6501201739       -0.2475544478
 C          8.7349470316        1.7912343654       -0.9548772791
 C         10.1391527653        2.3773439309       -0.9403291082
 C         10.6830898043        2.4196548990       -2.3752505683
 C         11.1106717500        1.5555191339       -0.0887096979
 C         10.0845639628        3.7986314498       -0.3621799104
 C          7.7401908762        2.4386298224       -1.6991457784
 C          6.4392821512        1.9829086479       -1.7706983420
 C          6.1161654138        0.8267197212       -1.0784619462
 C          3.6444896244        0.8768733436       -2.8852624507
 C          2.4574527552        1.2860296917       -3.4511127389
 C         -2.2388621957        2.4888570936       -2.6425768644
 C         -3.4472434388        2.2124567440       -2.0400387806
 H         -8.5186586922       -3.7260269618       -3.4193172853
 H        -10.0524448589       -4.3003961171       -2.7703082803
 H         -9.7496481729       -2.5670359462       -2.9244835505
 H         -7.2555098045       -5.0656306666       -1.6450362323
 H         -8.7840459718       -5.6468416334       -0.9907502837
 H         -7.6281442894       -4.8224859268        0.0599221579
 H        -10.4230513145       -2.3832127871       -0.4905357896
 H         -9.5393723329       -3.2981777837        0.7448328144
 H        -10.5904876149       -4.1320296228       -0.3943154775
 H         -6.4494269161       -3.2523135221       -2.6835581450
 H         -4.7252353893       -1.5399983572       -2.6340243373
 H         -8.6785081477       -1.2205426454        0.3599795354
 H         -8.4001265223        0.9982709662        1.7969293231
 H         -8.5620881606        1.3997537552        4.0126204439
 H         -7.1075727557        2.0794920368        4.7378366761
 H         -8.6896350648        2.7691423294        5.1137540087
 H         -9.8109573709        2.7138977230        2.2101644676
 H         -9.2161601033        4.2966826831        1.7157630613
 H         -9.9510814327        4.0849284699        3.3077846411
 H         -8.0180529111        5.0184489217        4.4535576978
 H         -7.2405101337        5.3497407788        2.9102382118
 H         -6.3818210178        4.4393324833        4.1664132471
 H         -5.5007050266        4.1367290451        2.1176937394
 H         -4.1209267104        3.1025125355        0.4152809795
 H         -2.8772329202       -1.0058585691       -1.1570314307
 H         -0.7195801061       -0.5065147952       -2.2311668708
 H          0.4722603389        1.1705146227       -0.7106573732
 H          2.5896854390        0.4555349554        0.3037311108
 H          3.1676450250       -1.8761161676       -0.0023095993
 H          3.9534285016       -3.6145840953        1.4924487153
 H          5.8140715090       -5.7475806452        3.6306554771
 H          4.5790674236       -4.5035730465        3.4783956898
 H          4.9990388104       -5.5209447562        2.0880709327
 H          7.9715189192       -5.5813665231        2.5101464175
 H          7.2414626024       -5.2313674720        0.9403382442
 H          8.4476401001       -4.1398431024        1.6165059918
 H          6.2366743755       -2.7826081062        4.3301608726
 H          7.8472662246       -2.6765124380        3.6243716805
 H          7.3799655276       -4.1139799016        4.5295694138
 H          7.9048216023       -1.9580313574        1.4804760700
 H          9.1123850362        0.1230231276        0.3568760905
 H         11.6947199074        2.8202287357       -2.3810344657
 H         10.0670575374        3.0446353948       -3.0155889090
 H         10.7060865981        1.4171672242       -2.7976861644
 H         12.0973376553        2.0134616912       -0.1209126921
 H         10.7900416458        1.5237946645        0.9500534812
 H         11.1995593460        0.5397613784       -0.4671143418
 H          9.6762144155        3.7782601494        0.6462136048
 H          9.4613620649        4.4504154090       -0.9679677133
 H         11.0845144764        4.2256295613       -0.3215203721
 H          7.9862628471        3.3390144841       -2.2409300071
 H          5.6992602933        2.5272658686       -2.3376156083
 H          4.5349020879        0.7818883753       -3.4879758490
 H          2.4032978556        1.5359956301       -4.5002413175
 H         -2.0518021531        3.4576510082       -3.0810703007
 H         -4.2258119958        2.9594051592       -2.0063509407
