112
 xtb: 6.7.1 (edcfbbe)
N          -12.70252105760331       -3.16552272334855       -0.07947138931592
C          -11.59908138028518       -2.81788044493793       -0.05516882271598
C          -10.27263155061300       -2.39658567134260       -0.02923831328219
C           -9.22214634842923       -3.28852013337441       -0.34777979417209
C           -7.92760435786967       -2.86349554167638       -0.32782629548044
C           -7.58650085923190       -1.52059640525527       -0.00423475512827
C           -6.21477770329698       -1.17809577319127       -0.01487786053414
N           -5.25710042718542       -2.11154446761300       -0.06484590247525
C           -4.08918859709906       -1.47409537142564        0.00164104960507
C           -2.78885013238729       -2.04616219681526        0.01108473284023
C           -2.60607267923782       -3.43351227800834       -0.02974463571148
C           -1.34608992269210       -3.97836720296333       -0.01002712564444
C           -0.22543859767046       -3.14160196805269        0.06683227088313
C            1.12881925245571       -3.69457804189458        0.08602602304809
C            1.46116769679542       -4.81192663130903       -0.68525597188647
C            2.74337034404606       -5.31324683077981       -0.69976912576525
C            3.74738144386645       -4.71994314367550        0.07278068015593
N            5.04837402918532       -5.21219292145711        0.05050955925750
C            5.28028820982855       -6.58605520382872       -0.11266987495743
C            6.33611441246818       -7.03329404051479       -0.90752421240793
C            6.56495808358474       -8.38763269020313       -1.05966185150513
C            5.74672855081849       -9.31277641961127       -0.42976065586054
C            4.69555792134770       -8.87285342344052        0.35963263470590
C            4.46161114387192       -7.52062872230408        0.52286104608669
C            6.13730613719305       -4.33938743763936        0.17615150194693
C            7.27031391276653       -4.72509563815324        0.89350603481728
C            8.34546852515343       -3.86455366659879        1.00903138154954
C            8.30674140244610       -2.60928864824376        0.42204082312053
C            7.18253834226208       -2.22078950270187       -0.28954121301162
C            6.10585530322652       -3.07712881235049       -0.41894689834572
C            3.41596880322455       -3.61642809134370        0.86594985723882
C            2.13477825883066       -3.11363112670967        0.86419590062672
C           -0.41160802023105       -1.76204673328788        0.10914391790753
C           -1.67601042539189       -1.17327970004492        0.07285908215115
C           -1.87640600346720        0.27024938207263        0.07923506705650
C           -0.80593881728363        1.14779785711746        0.08868330442919
C           -0.94364071640653        2.54080524358736        0.04141064457480
C            0.21996551897954        3.39953100052211        0.03861478403251
C            0.20907291604761        4.64962143661920       -0.60537832524906
C            1.32260061061399        5.45184277333996       -0.63698864361897
C            2.51191469873003        5.05120386571546       -0.01205748554205
N            3.64526320266070        5.85295665667850       -0.05547533513594
C            4.92048560498134        5.27630229113410       -0.09465250706336
C            5.98187290305556        5.86658227505792        0.59355072670324
C            7.24000406401751        5.29790751092257        0.54905875290358
C            7.45956026246123        4.13462854055499       -0.17238687138143
C            6.40853645833978        3.54479194033822       -0.85736446475912
C            5.14794358209692        4.10869660827458       -0.82534112492265
C            3.52058779263051        7.24929587214425       -0.06844873667765
C            2.55881608889931        7.87996294780242        0.72210634357305
C            2.44061847532845        9.25626835315943        0.70365939103548
C            3.27679805800700       10.02172176519385       -0.09431826703896
C            4.23603186078891        9.39944305316130       -0.87824734913084
C            4.36030104286582        8.02364371110535       -0.87013009558608
C            2.52909337971320        3.81807965511407        0.65456685077465
C            1.41562641165576        3.01629059015530        0.67333317384091
C           -2.25525690071331        3.06409302666161       -0.02785765522805
C           -3.33750922974373        2.23914480033902       -0.00990164666591
C           -3.20599040035982        0.82658813239175        0.05645763008157
C           -4.28048149294922       -0.06441567553154        0.06846993088124
N           -5.65100071517762        0.10557859724667        0.06390863823781
C           -6.35084250915932        1.32793167198467        0.04556023776852
C           -7.00752740866932        1.73454175949447       -1.11276492743604
C           -7.69883492399946        2.93242642589424       -1.12515370068488
C           -7.73700884546668        3.72837603904390        0.00871101962168
C           -7.08118202076639        3.32481345735594        1.16156911605063
C           -6.38857250960512        2.12819852502725        1.18569526665479
C           -8.64750527409528       -0.64577546463542        0.34138188154939
C           -9.94576228776097       -1.07089665414594        0.32894800734745
H           -9.46360787522998       -4.31225348238127       -0.59620681505983
H           -7.11928983575142       -3.53988244681741       -0.56002399131545
H           -3.48607007837391       -4.05528748283055       -0.05848128909033
H           -1.21756298650647       -5.04989978831239       -0.01144604375331
H            0.70383014628255       -5.28164159362472       -1.29745347537751
H            2.97784916180238       -6.17698097056499       -1.31042230574356
H            6.95951599111128       -6.34456028462056       -1.40378891827992
H            7.36909585566440       -8.75898978865402       -1.63831836805283
H            5.91554708224102      -10.38380340986149       -0.47773925386557
H            4.05333057715774       -9.57421235801282        0.92857388675072
H            3.65118110658656       -7.16079208980955        1.17915394530902
H            7.30559215193083       -5.68594599061030        1.34882423501991
H            9.22615202930879       -4.16088566590178        1.52267842908191
H            9.15354405700878       -1.94183700114449        0.44056384226784
H            7.14589317571911       -1.26638197316969       -0.83134876992920
H            5.23412933197672       -2.79912793541505       -1.03026764907038
H            4.18287714704482       -3.15078856119103        1.46306396074711
H            1.90766553053676       -2.26121982078158        1.47911012838453
H            0.47252041330078       -1.14311992541054        0.12226445589491
H            0.19733305437733        0.75445063664151        0.07587382483376
H           -0.67713859117933        4.97240897564546       -1.13192718830882
H            1.29556031535072        6.39705494886167       -1.16323601030373
H            5.80616396421139        6.76578321231195        1.18228322130810
H            8.04971711487280        5.76375879307732        1.10218212800824
H            8.44394974855386        3.70076341998993       -0.19813959037795
H            6.57560562434817        2.65684567547001       -1.43266410449928
H            4.33567148832075        3.66861943380092       -1.37433027027814
H            1.91094941605029        7.28024223077702        1.36587156889721
H            1.68847006894862        9.73064786785199        1.34591977775163
H            3.17507602250823       11.10084753885691       -0.07253017524965
H            4.88417716918238       10.00147277057699       -1.47624747933914
H            5.09980602394663        7.55075213285442       -1.47038296260423
H            3.42370052747781        3.51071632090718        1.17413293727234
H            1.44977529594960        2.08987884727961        1.22139730206441
H           -2.40544459628065        4.13281340120279       -0.07138040332620
H           -4.32555512310552        2.66534302664755       -0.06761475552892
H           -6.97307267713823        1.09950385208421       -1.99649999390352
H           -8.20541916583041        3.24059974041010       -2.03711044873621
H           -8.27797860811544        4.66162320380977       -0.02042791244329
H           -7.11237305952871        3.94500863339120        2.03469146037294
H           -5.87545122233899        1.80631403128523        2.07099291507086
H           -8.43585454173843        0.36743529486672        0.64315099987065
H          -10.74221370757199       -0.39149000775668        0.59855426025801
