113
 xtb: 6.7.1 (edcfbbe)
C            0.13894989052650        4.89155351449130       -1.33962965742940
C            0.63414724791577        3.65053571446641       -0.66009622882510
C            1.77659550644736        3.66972542443074        0.13000541019238
C            2.22175162557860        2.53071259957408        0.76567252068592
C            1.52554896003517        1.32442380606926        0.65304434850769
C            0.37155624009294        1.29754423397411       -0.13230485575401
C           -0.04850974112385        2.44979603514094       -0.77735312487194
C           -0.46547238194546        0.03640776992584       -0.28752699643896
C           -1.84597018031139        0.35862239424604        0.23140887217979
C           -2.01553268100592        0.57330743256419        1.59515655786331
C           -3.25228254474555        0.88614835632990        2.12038294728329
C           -4.37091367430287        0.99738936961903        1.29295680043596
C           -5.69621382418185        1.31549414415439        1.85256819478302
C           -5.83250613065645        2.39572435404915        2.71927432819360
C           -7.06924879236999        2.74996078184282        3.22606577834067
C           -8.19279698002361        2.02321133186412        2.86836502196508
C           -8.06938452299922        0.94281940351581        2.01387940776423
C           -6.83011580682204        0.57039361320715        1.50203894731884
C           -6.73414557047154       -0.61659330140817        0.63144254700876
C           -7.56665879869232       -0.74391174437236       -0.47683240541997
C           -7.47906177189494       -1.85334385742419       -1.29819704742848
C           -6.56742001711579       -2.85681284474294       -1.01649837515587
C           -5.74705202274986       -2.74736240328494        0.09446609857053
C           -5.82760912625735       -1.63583008677558        0.91231910530173
C           -4.19937681816954        0.81551589914649       -0.06907750310515
C           -2.95345728556436        0.49460873172701       -0.60694343184819
C           -2.85559562317006        0.29373255718284       -2.06246815022987
O           -3.80110843211888        0.52549494910850       -2.81161538284508
C           -1.57306702408847       -0.21664354627693       -2.56744078756551
C           -1.48847535558667       -0.58934159591782       -3.91285401485017
C           -0.32469228813569       -1.10369627489412       -4.43202787162212
C            0.80419913815835       -1.24051631512413       -3.61960575536546
C            2.03549570446798       -1.83363361031881       -4.16791086143481
C            1.94026038365462       -3.04021657815343       -4.85794526476268
C            3.06467734396067       -3.66660684176031       -5.36140949666270
C            4.31034503723760       -3.08739352498541       -5.18288240584202
C            4.41815470486794       -1.88802396682317       -4.50430633327363
C            3.29431140866056       -1.24426504876948       -3.99123903966758
C            3.46692338107657        0.06148186891224       -3.32958983537529
C            4.46153599539145        0.23260103180792       -2.36973058184701
C            4.67008430879040        1.46727493200692       -1.78310223701950
C            3.89358828353282        2.55143580715293       -2.15414574223582
C            2.90060470372665        2.39189872917339       -3.10593187855343
C            2.68671552830093        1.15733630815366       -3.68954580630956
C            0.72351870210514       -0.85621287008980       -2.28700277588059
C           -0.45220163912351       -0.35555421753921       -1.74535370383103
C            0.09578836002483       -1.11662327392496        0.52177827856329
C           -0.59595086549082       -2.31753412916073        0.50858882206596
C           -0.15718024308088       -3.42789072927772        1.21458069155347
C           -0.93990370902753       -4.70629326314002        1.20125481320958
C            1.01420188107781       -3.30414067034644        1.95174610927828
C            1.71682121749479       -2.11744526830610        1.97992711463495
C            1.27270793425155       -1.00184125580578        1.26432319479982
N            1.97543362139016        0.19046583187741        1.30824455221229
C            3.18700658297386        0.25358455707116        2.05594263473018
C            3.19412392193205        0.75183231835065        3.35177575101197
C            4.37829570186531        0.81734969624103        4.06647241023855
C            5.58106299924072        0.38706529994224        3.51336536026773
C            6.90431024073311        0.45009202284423        4.26097387465346
C            7.87929456948121        1.34015820704576        3.47185877006158
C            7.47859269775445       -0.97102457375400        4.38403061765031
C            6.75935579482940        1.03328230781922        5.67186524158387
C            5.55177922636588       -0.11885509095132        2.21267682493942
C            4.37724860573005       -0.18638486091665        1.48938997944875
H           -0.45358700355093        4.63925303248730       -2.21782821109469
H           -0.47816072849104        5.46916271270940       -0.66337165681898
H            0.97779651104477        5.51952552720208       -1.65459496308157
H            2.33377678525048        4.58908675429350        0.24619064557418
H            3.12077072006117        2.56897037267082        1.36456546002013
H           -0.93777077922109        2.40506366452757       -1.38966097065180
H           -1.15925242236229        0.49416209456928        2.24950581904998
H           -3.36079685448105        1.04117144572173        3.18323367334734
H           -4.95498864535185        2.98473757219683        2.96979322160050
H           -7.15468747574748        3.60670612604909        3.88588924459960
H           -9.16092206524757        2.30573423430564        3.25356020071535
H           -8.93896495933185        0.36722649958843        1.75088206899696
H           -8.26822247339508        0.04290573569545       -0.70361600534971
H           -8.12088079096268       -1.93934901395027       -2.15412147181130
H           -6.49642103480973       -3.72674995686176       -1.64544790375159
H           -5.03866907521637       -3.53052223063172        0.33728246059227
H           -5.18809855992330       -1.55170918502608        1.78864299337103
H           -5.02981418121718        0.91728386909043       -0.75247761943225
H           -2.37190490103030       -0.48635900296845       -4.52312560907158
H           -0.27272974225056       -1.40425355970049       -5.46862691143282
H            0.97626463931357       -3.50992074940318       -4.96461149792519
H            2.97875048863663       -4.61094682932737       -5.87763243088354
H            5.20066211481327       -3.56307723256584       -5.57529254152660
H            5.38640725817827       -1.41282732730571       -4.39571182299909
H            5.07504795733268       -0.59067663719104       -2.09798907297622
H            5.44449110340152        1.61979259011018       -1.07188165376526
H            4.04856811719294        3.53821953297588       -1.74074152868945
H            2.26977173214838        3.23456692830520       -3.42329847353118
H            1.90812461380525        1.03610056156076       -4.45509881599855
H            1.59163402486735       -0.96707296373884       -1.65019611946596
H           -1.50761078882764       -2.37850406795673       -0.06990132520344
H           -0.29555178833261       -5.55815135622466        1.39600621582947
H           -1.70807356933500       -4.68065286028008        1.98330034061437
H           -1.43986347831671       -4.84287757832427        0.24858541358853
H            1.38716807762408       -4.15008039532505        2.51202558246183
H            2.62677057078274       -2.04998851326171        2.55766404093194
H            2.25348765831002        1.00792040582647        3.82641950574921
H            4.32350139970474        1.12432720327203        5.10254475655490
H            8.06926728835495        0.99852946150379        2.51810130166651
H            8.80455268545602        1.44485736627337        4.05505267839323
H            7.43370960005040        2.36645576228028        3.43096230511700
H            7.68644331684640       -1.37857033538041        3.36239258597911
H            8.43112743602909       -0.95397105325707        4.90135869367937
H            6.80594740750354       -1.64335554337972        4.86639826404186
H            6.34653388401474        1.98780316828285        5.70006241525023
H            6.08862481295519        0.33517844055842        6.29019458047642
H            7.71585447081392        0.99598809197858        6.18669904412565
H            6.47460863908409       -0.38576379952713        1.72667639497612
H            4.38821634488671       -0.49167160771737        0.45736736995535
