50

C     -2.487164    4.959553   -0.198775
C     -2.818373    3.498824   -0.089904
C     -4.148020    3.082183   -0.058075
C     -4.469942    1.722518   -0.015456
C     -3.443570    0.753784    0.000625
C     -3.451356   -0.671224    0.006996
C     -4.488607   -1.628038    0.012241
C     -4.182474   -2.993371    0.058966
Br    -5.644851   -4.208718    0.064725
C     -2.856347   -3.432535    0.114838
C     -2.497532   -4.891757    0.195568
C     -1.818319   -2.481889    0.106871
C     -2.126389   -1.106227    0.020359
N     -1.310942    0.029351    0.009206
C      0.115631    0.020648    0.012243
C      0.823697    0.891764    0.842611
C      2.224413    0.880431    0.847132
C      2.952789    0.006672    0.023221
C      4.491416   -0.027846    0.002710
C      4.998759    0.307808   -1.416382
C      4.984761   -1.436300    0.398861
C      5.152169    0.976922    0.973472
C      2.215741   -0.860199   -0.807259
C      0.816581   -0.858442   -0.814407
C     -2.112428    1.173803   -0.003592
C     -1.787805    2.545792   -0.087047
H     -3.251795    5.571634    0.291091
H     -1.532754    5.180633    0.290648
H     -2.421557    5.250528   -1.251665
H     -4.953367    3.813241   -0.080591
H     -5.512119    1.415568   -0.007325
H     -5.522286   -1.294775   -0.010356
H     -1.412134   -5.037732    0.222029
H     -2.874510   -5.428321   -0.680967
H     -2.907881   -5.336866    1.107607
H     -0.786009   -2.812311    0.186375
H      0.308391    1.560393    1.528540
H      2.723929    1.571164    1.521241
H      4.666302   -0.425013   -2.159727
H      6.094410    0.324284   -1.450851
H      4.639915    1.291732   -1.741062
H      6.079932   -1.478275    0.426401
H      4.614977   -1.718907    1.391676
H      4.652944   -2.205720   -0.306827
H      6.245888    0.914199    0.922898
H      4.866426    0.780663    2.013473
H      4.877905    2.010667    0.732801
H      2.726811   -1.551544   -1.474521
H      0.299186   -1.520327   -1.504711
H     -0.754439    2.871580   -0.165927
