  92
 
 C         -8.7581939566       -1.8372364276        1.0461469390
 C         -7.8729879878       -0.7810883521        0.3589631528
 C         -8.7488334594        0.2790061399       -0.3339840804
 C         -7.0226381643       -1.4680738664       -0.6917133870
 C         -7.6371313117       -2.1439165372       -1.7366692283
 C         -6.9111077264       -2.7803809907       -2.7264285761
 C         -5.5283163453       -2.7413345118       -2.6846448607
 C         -4.8912817065       -2.0780691650       -1.6583343262
 C         -5.6235234917       -1.4422285154       -0.6498360504
 N         -4.9553739803       -0.7933637560        0.3721009294
 C         -3.5324245666       -0.8125708033        0.3846341033
 C         -2.8555106158       -1.9115721134        0.9294602242
 C         -1.4838996404       -1.9347623300        0.9448245251
 C         -0.7199167545       -0.8759964778        0.4277716265
 C          0.7209944668       -0.8732411400        0.4320848306
 C          1.4858293309       -1.9289042513        0.9541943402
 C          2.8573983847       -1.9014148059        0.9452262667
 C          3.5334707842       -0.8010476320        0.4020894623
 N          4.9564144975       -0.7801463078        0.3919231331
 C          5.6265752393       -0.1176053523        1.4040898131
 C          4.8973982221        0.5173765963        2.4152014235
 C          5.5373258277        1.1849343863        3.4369126914
 C          6.9201715588        1.2290927514        3.4715573245
 C          7.6432783143        0.5949599860        2.4782713970
 C          7.0258289468       -0.0846907830        1.4374440691
 C          7.8740695107       -0.7712186135        0.3846468879
 C          8.7538370254        0.2860266914       -0.3076997181
 C          8.7553760985       -1.8280668793        1.0757663343
 C          7.0250919175       -1.4582681847       -0.6670840808
 C          7.6409538536       -2.1360376636       -1.7099890337
 C          6.9162698098       -2.7728094466       -2.7005127272
 C          5.5334598878       -2.7320954029       -2.6616172416
 C          4.8950926845       -2.0669937037       -1.6373446929
 C          5.6259488969       -1.4308954415       -0.6279868316
 C          2.8187327337        0.2500794227       -0.1188152479
 C          1.4156644993        0.2354496397       -0.1110510822
 C          0.7110556231        1.3527998258       -0.6575236441
 N          1.3607336067        2.3928439127       -1.1600610134
 C          0.7207403661        3.4463908659       -1.6734811127
 C          1.3912153295        4.5464031597       -2.2024472047
 C          0.6912572953        5.6190427958       -2.7238525484
 C         -0.6961786809        5.6162463717       -2.7282663426
 C         -1.3950885709        4.5408248999       -2.2112143862
 C         -0.7235352237        3.4435481176       -1.6779348205
 N         -1.3625254313        2.3875999459       -1.1682593997
 C         -0.7118622084        1.3501205841       -0.6616972223
 C         -1.4154804192        0.2303100720       -0.1190584193
 C         -2.8185215750        0.2405945132       -0.1332614370
 C         -5.6268677442       -0.1322982272        1.3843874960
 C         -4.8990328396        0.4996307133        2.3984092918
 C         -5.5402523798        1.1657947194        3.4201949882
 C         -6.9230987946        1.2116992787        3.4519908320
 C         -7.6449041895        0.5805206372        2.4558774297
 C         -7.0261259015       -0.0978448991        1.4149963679
 H         -9.3921341626       -2.3423373539        0.3227329296
 H         -8.1332697856       -2.5825496023        1.5347652637
 H         -9.3963187292       -1.3796594625        1.7969604373
 H         -8.1170299714        1.0207381891       -0.8189249391
 H         -9.3846609406       -0.1758799280       -1.0883928484
 H         -9.3846379566        0.7875120165        0.3853965604
 H         -8.7150082704       -2.1780156417       -1.7860655768
 H         -7.4213999729       -3.2980384807       -3.5242382203
 H         -4.9434634671       -3.2260004118       -3.4519999660
 H         -3.8130737024       -2.0449094201       -1.6331198256
 H         -3.4261517462       -2.7347637849        1.3327165110
 H         -0.9928017399       -2.7948220415        1.3705377649
 H          0.9954289470       -2.7901033834        1.3783981149
 H          3.4287224206       -2.7225910147        1.3516154092
 H          3.8191984837        0.4833634111        2.3938518967
 H          4.9546035968        1.6696139610        4.2058442256
 H          7.4327160993        1.7497609656        4.2659576950
 H          8.7212591025        0.6335629155        2.5216126792
 H          9.3904263841       -0.1712286265       -1.0600216168
 H          9.3891211977        0.7940990717        0.4124341716
 H          8.1247802655        1.0284881327       -0.7950956552
 H          9.3927847634       -1.3705249693        1.8272126602
 H          8.1276987694       -2.5711277404        1.5643066615
 H          9.3897966716       -2.3358753212        0.3546721603
 H          8.7188954079       -2.1715027982       -1.7570739349
 H          7.4275905127       -3.2920167301       -3.4966625273
 H          4.9495508825       -3.2169388432       -3.4295955035
 H          3.8168814216       -2.0326572359       -1.6145523169
 H          3.3249443598        1.1054918044       -0.5391233718
 H          2.4701578714        4.5367108805       -2.1931188614
 H          1.2310216939        6.4616753490       -3.1287429487
 H         -1.2367601274        6.4566673849       -3.1366484764
 H         -2.4740205035        4.5267655469       -2.2086976067
 H         -3.3254440240        1.0947525940       -0.5552675835
 H         -3.8208449328        0.4644152471        2.3793584149
 H         -4.9584811528        1.6480910471        4.1913425875
 H         -7.4366376522        1.7314723442        4.2463324932
 H         -8.7229181308        0.6205369454        2.4969600852
