  64
 
 C         -5.9765780142       -1.6067706767        0.0000789030
 C         -5.0630667282       -0.3663318170        0.0000105364
 C         -5.9121718925        0.9187391000       -0.0000639032
 C         -4.2133878523       -0.3901201097        1.2574607927
 C         -4.8300189298       -0.3667154947        2.5010907905
 C         -4.1084878897       -0.3919643614        3.6808676342
 C         -2.7271992927       -0.4436179269        3.6278754038
 C         -2.0880733060       -0.4669977811        2.4056522116
 C         -2.8160203547       -0.4403781925        1.2124797623
 N         -2.1441020626       -0.4641899167        0.0000275200
 C         -0.7222101725       -0.5123062123        0.0000322264
 C         -0.0647969629       -1.7435391771        0.0000516769
 C          1.3094328942       -1.7713452391        0.0000601491
 C          2.0519824734       -0.5862696054        0.0000363271
 C          1.3992101964        0.6628360995       -0.0000038749
 C          0.0008633598        0.6666114961        0.0000046809
 C          2.1818970722        1.8925262683       -0.0000533118
 C          1.5859251247        3.1558786489       -0.0001020801
 C          2.3563315468        4.3115940209       -0.0001715393
 C          1.7173500126        5.5723856926       -0.0001902712
 N          1.1979593627        6.5957742596       -0.0002881264
 C          3.7558428226        4.2390213948       -0.0001703609
 C          4.3550222631        3.0042198955       -0.0001189175
 C          3.5911734426        1.8312053592       -0.0000656659
 C          4.2639881361        0.5497446011       -0.0000245859
 N          5.5840710518        0.5219308506       -0.0000578225
 C          6.1908942639       -0.6733111423       -0.0000017550
 C          7.6009810549       -0.7492926983       -0.0000581919
 C          8.2133110027       -1.9696979673        0.0000024220
 C          7.4570848713       -3.1591204337        0.0001437289
 C          6.0920064021       -3.1229749544        0.0002063150
 C          5.4240963891       -1.8788186800        0.0001187990
 N          4.0840806122       -1.8372235398        0.0001348955
 C          3.4973633872       -0.6541851838        0.0000503151
 C         -2.8160110139       -0.4405120627       -1.2124327263
 C         -2.0880537777       -0.4672540697       -2.4055962906
 C         -2.7271694689       -0.4440161433       -3.6278274843
 C         -4.1084580892       -0.3923825579       -3.6808368922
 C         -4.8299990958       -0.3670033351       -2.5010688054
 C         -4.2133783482       -0.3902628715       -1.2574308227
 H         -6.6129332219       -1.6188753869        0.8806302338
 H         -5.3728655673       -2.5129891803        0.0001277114
 H         -6.6129349482       -1.6189704301       -0.8804696096
 H         -6.5475768035        0.9637583144        0.8800131029
 H         -6.5475425577        0.9636815220       -0.8801695772
 H         -5.2636002069        1.7933425098       -0.0000895402
 H         -5.9073489684       -0.3283623213        2.5578857460
 H         -4.6214693367       -0.3727528029        4.6307798402
 H         -2.1433392941       -0.4655338223        4.5365276350
 H         -1.0099221936       -0.5078393484        2.3714309498
 H         -0.6412237289       -2.6560840530        0.0000587903
 H          1.8497202917       -2.7047684794        0.0000772860
 H         -0.5530571854        1.5914912389       -0.0000129615
 H          0.5132063994        3.2632581073       -0.0000909509
 H          4.3419295950        5.1453878272       -0.0001955133
 H          5.4290309262        2.9056413898       -0.0001466001
 H          8.1611261477        0.1730876080       -0.0001655428
 H          9.2911916586       -2.0337938031       -0.0000542761
 H          7.9730862911       -4.1077192975        0.0002006454
 H          5.4947996901       -4.0217853506        0.0003113180
 H         -1.0099025080       -0.5080772102       -2.3713623606
 H         -2.1433009532       -0.4660215528       -4.5364721289
 H         -4.6214311866       -0.3732772269       -4.6307557362
 H         -5.9073288301       -0.3286607882       -2.5578771240
