  66
 
 C          0.6170246252        0.0020412755        0.0341324685
 C         -0.6172240997       -0.0005802551        0.0336213483
 C         -1.9858103522       -0.0040276174        0.0286341065
 C         -2.7326818054        0.6063610667        1.0815487416
 C         -4.0966046821        0.6087232638        1.0634550038
 C         -4.8011617599       -0.0101009555        0.0131104964
 N         -6.2102234638       -0.0124242343        0.0042071942
 C         -6.9215634337        1.1822071912       -0.0348954959
 C         -6.2885385632        2.4213721421       -0.1260573156
 C         -7.0250977920        3.5919285687       -0.1576945203
 C         -8.4079526804        3.5534769042       -0.1114355565
 C         -9.0573339111        2.3302550644       -0.0602899223
 C         -8.3262604557        1.1547737658       -0.0306603949
 O         -9.0342133248       -0.0181057981       -0.0217933901
 C         -8.3219033175       -1.1881583881        0.0002388863
 C         -9.0485485294       -2.3666349665        0.0158889020
 C         -8.3951605079       -3.5871875586        0.0788650424
 C         -7.0132324949       -3.6199644101        0.1510384348
 C         -6.2810609171       -2.4463884475        0.1336024116
 C         -6.9174425597       -1.2098165030        0.0308014572
 C         -4.0824134862       -0.6265233460       -1.0290993089
 C         -2.7185182550       -0.6182795188       -1.0320956277
 C          1.9855295569        0.0044305307        0.0286220822
 C          2.7203941489       -0.5996905913       -1.0365290318
 C          4.0842059007       -0.6016088964       -1.0346062521
 C          4.8011908395        0.0097396506        0.0120587898
 N          6.2099500049        0.0130226773        0.0021378659
 C          6.9171731529        1.2106728382       -0.0201583021
 C          6.2800606895        2.4491026375       -0.0911576223
 C          7.0126504430        3.6225063908       -0.1032316925
 C          8.3956562340        3.5880257631       -0.0580184504
 C          9.0491241737        2.3662848980       -0.0289528595
 C          8.3219855998        1.1880120858       -0.0189388896
 O          9.0340132677        0.0177382195       -0.0327454897
 C          8.3259143750       -1.1549657634       -0.0276040101
 C          9.0567885302       -2.3309225695       -0.0348437669
 C          8.4080755619       -3.5546756505        0.0117232900
 C          7.0266830030       -3.5935053703        0.0914316322
 C          6.2903579571       -2.4224424458        0.0967318801
 C          6.9216773267       -1.1820758472        0.0087177389
 C          4.0943419401        0.6173968610        1.0675820950
 C          2.7304890342        0.6102658206        1.0856017963
 H         -2.1924004013        1.0598014201        1.9001116820
 H         -4.6543374185        1.0613062218        1.8717865919
 H         -5.2125918444        2.4600957376       -0.1822268189
 H         -6.5094048517        4.5374762840       -0.2243835814
 H         -8.9835089886        4.4652875304       -0.1311991873
 H        -10.1337133301        2.2627150292       -0.0498869631
 H        -10.1248120795       -2.3035609828       -0.0148303867
 H         -8.9671922152       -4.5013818385        0.0874227795
 H         -6.4950434122       -4.5634339299        0.2270955576
 H         -5.2061785983       -2.4806148811        0.2097803672
 H         -4.6293165281       -1.0818090093       -1.8433136024
 H         -2.1672021450       -1.0692652243       -1.8446236057
 H          2.1705176819       -1.0470020202       -1.8520563538
 H          4.6324085716       -1.0475695484       -1.8531137774
 H          5.2040285915        2.4854167990       -0.1468544150
 H          6.4936663151        4.5672564385       -0.1536886168
 H          8.9681078218        4.5019879808       -0.0620773981
 H         10.1257326095        2.3021182811       -0.0212394723
 H         10.1326518876       -2.2634733219       -0.0698382971
 H          8.9832978596       -4.4668484151        0.0020227492
 H          6.5122121443       -4.5398818454        0.1557234452
 H          5.2161163275       -2.4618653711        0.1789547415
 H          4.6502860838        1.0649374291        1.8799665468
 H          2.1887233320        1.0553634773        1.9077447746
