  43
 
 N         -6.7475550330       -4.3045038120        0.3478368449
 C         -5.8043536123       -3.6525547981        0.2877985622
 C         -4.6463774181       -2.8482323944        0.2147520167
 C         -3.4337859242       -3.3180904155        0.7259548420
 C         -2.3097642898       -2.5236857938        0.6535961927
 C         -2.3690014310       -1.2511239006        0.0824984630
 C         -1.1483837304       -0.4309054730        0.0338721511
 C         -1.1920731911        0.9623327250        0.0456351637
 C          0.0011877157        1.6788301271        0.0001677721
 C          0.0022607262        3.1494798995       -0.0002764509
 C         -0.9049118170        3.8568617244       -0.7855395820
 C         -0.8987798910        5.2397253888       -0.7889592937
 C          0.0039194881        5.9338790573        0.0000608314
 C          0.9057930353        5.2384864208        0.7889126212
 C          0.9102465131        3.8556269786        0.7851715622
 C          1.1934415581        0.9606660934       -0.0454981611
 C          1.1478184485       -0.4325036084       -0.0338219378
 C          2.3673146680       -1.2543953135       -0.0824660510
 C          3.5801232537       -0.8005182398        0.4362696371
 C          4.7101304121       -1.5895847017        0.3732872683
 C          4.6425424134       -2.8545702459       -0.2147460085
 C          5.7994238569       -3.6604746305       -0.2876123799
 N          6.7416187079       -4.3138023922       -0.3480597334
 C          3.4293382283       -3.3227468291       -0.7260447313
 C          2.3063866484       -2.5268273752       -0.6536798258
 N         -0.0007455436       -1.1004294035        0.0000450485
 C         -3.5812220098       -0.7955569278       -0.4361365041
 C         -4.7122899066       -1.5830994875       -0.3731578609
 H         -3.3873829902       -4.2997890704        1.1740180658
 H         -1.3654614991       -2.8725371559        1.0415492592
 H         -2.1324045449        1.4840083679        0.1246275742
 H         -1.6008241456        3.3193502638       -1.4135321439
 H         -1.6006096897        5.7781187045       -1.4092781778
 H          0.0046041403        7.0139342183        0.0001356045
 H          1.6082657548        5.7758928461        1.4093739167
 H          1.6053308728        3.3171486993        1.4132698450
 H          2.1344894995        1.4810187300       -0.1246756476
 H          3.6400769053        0.1668013197        0.9110313683
 H          5.6482955937       -1.2385659605        0.7776626332
 H          3.3815950886       -4.3043788883       -1.1741097354
 H          1.3616174385       -2.8743840354       -1.0416729871
 H         -3.6398804574        0.1718697544       -0.9108506772
 H         -5.6500118425       -1.2307684657       -0.7774113546
