  77
 
 C         -3.1068997917       -5.6980648690        1.2244430707
 C         -3.5454726421       -4.9998104796       -0.0724664732
 C         -2.8461221869       -5.6523681663       -1.2756171672
 C         -5.0556610515       -5.1971169245       -0.2348646842
 C         -3.1491324509       -3.5348170167       -0.0069864178
 C         -1.7936611435       -3.2022785256        0.1291458007
 C         -1.3433770866       -1.8986958982        0.1799530423
 C         -2.2826264610       -0.8787906092        0.0792432471
 C         -3.6595124048       -1.1883505197       -0.0193508995
 C         -4.0849580160       -2.5036133475       -0.0672667273
 C         -4.3568883265        0.0746520668       -0.0350404466
 C         -5.6953735151        0.4132477364       -0.1121517478
 C         -6.0687764203        1.7563771726       -0.1209987018
 C         -7.5212511982        2.1968475592       -0.1807442260
 C         -8.4962954025        1.0161602011       -0.2214758428
 C         -7.8369406273        3.0358885552        1.0677883000
 C         -7.7416007062        3.0429505470       -1.4445280622
 C         -5.0619897369        2.7318365006       -0.0793779536
 C         -3.7192486998        2.4210723885       -0.0049447002
 C         -3.3619145045        1.0781596672        0.0469883067
 N         -2.1183818149        0.4897656400        0.1180598770
 C         -0.8991667761        1.1561627627        0.2193217266
 C          0.1835279823        0.7739264072       -0.5906955800
 C          1.3960529368        1.4008774007       -0.4765084150
 C          1.5990230580        2.4285974147        0.4726380733
 C          2.8538371277        3.1281952852        0.6372534813
 O          2.8543397943        4.3173400476        1.0923307841
 C          4.1088817830        2.4819049241        0.2804828511
 C          5.2268424810        3.2876456178       -0.0290251526
 C          6.4508127890        2.7385599061       -0.3255634960
 C          6.5860163945        1.3551242268       -0.2961083593
 S          8.0494522439        0.4517368359       -0.6229296246
 C          7.2235433484       -1.0594132450       -0.2891445977
 C          7.7909665227       -2.3219862493       -0.3444047436
 C          6.9956073478       -3.4147810985       -0.0502884306
 C          5.6580041369       -3.2470656077        0.2912813756
 C          5.0948144968       -1.9858429252        0.3454954055
 C          5.8746026989       -0.8714691829        0.0562278205
 C          5.5020196441        0.5238278988        0.0495802610
 C          4.2754459565        1.0911426853        0.3434496630
 C          0.4754119874        2.8596192238        1.2189713722
 C         -0.7329647141        2.2274785064        1.1141188992
 H         -3.5767978056       -5.2259952342        2.0850343629
 H         -2.0296437147       -5.6539718206        1.3572188456
 H         -3.4034274128       -6.7443561865        1.2004708342
 H         -3.1309106052       -5.1474419940       -2.1966318684
 H         -3.1370955247       -6.6977526648       -1.3515251682
 H         -1.7647933265       -5.6075194072       -1.1823784295
 H         -5.5993438012       -4.7854740153        0.6122968274
 H         -5.4149125149       -4.7362297108       -1.1521593585
 H         -5.2761386992       -6.2612956200       -0.2870412710
 H         -1.0610420734       -3.9902682092        0.2030169443
 H         -0.2938887072       -1.6832950906        0.3064269218
 H         -5.1388617784       -2.7080294344       -0.1462338029
 H         -6.4295593246       -0.3721448107       -0.1662373065
 H         -8.3996771066        0.3962777753        0.6668824888
 H         -8.3362792454        0.4054098402       -1.1069940322
 H         -9.5163699256        1.3930290532       -0.2562020312
 H         -8.8811095623        3.3404387088        1.0557080575
 H         -7.2232354058        3.9311387596        1.1131765531
 H         -7.6580843281        2.4528759354        1.9691742150
 H         -8.7844481790        3.3452090094       -1.5104893150
 H         -7.4928104552        2.4657630255       -2.3328756222
 H         -7.1288636231        3.9399036939       -1.4376689391
 H         -5.3347344053        3.7748176320       -0.1120402724
 H         -2.9735519535        3.2008901583       -0.0010533887
 H          0.0361204274        0.0137434624       -1.3438945884
 H          2.1975459041        1.1320292326       -1.1478650611
 H          5.0885110142        4.3589479462       -0.0353434220
 H          7.2936191132        3.3653986335       -0.5753987077
 H          8.8298630016       -2.4415319394       -0.6101835514
 H          7.4200419362       -4.4067916642       -0.0865048303
 H          5.0535053489       -4.1127504604        0.5176103215
 H          4.0568077878       -1.8574166596        0.6125317931
 H          3.4584131599        0.4622943099        0.6611370088
 H          0.6194764950        3.6780193079        1.9092006023
 H         -1.5539752450        2.5167884896        1.7531851246
