  129
 
 C          0.6665026833        0.0724158277       -1.0074295756
 C          0.0044004455        1.0928808971       -0.0701340287
 C         -0.6801140914        0.3269826523        1.0714332164
 C          0.9970501580        2.0498903234        0.5704917824
 C          0.4973278158        3.1829039363        1.2208482532
 C          1.3468019842        4.0798341540        1.8190586424
 C          2.7273020599        3.8628751943        1.7997514698
 C          3.2688071629        2.7137238341        1.1962650647
 C          2.3601515389        1.8424598079        0.5761985398
 B          4.8035923614        2.5390042724        1.2704125635
 C          5.7568901004        1.3856154767        0.8683007788
 C          5.3886803389        0.1011918860        0.4434129531
 C          6.3080731814       -0.8558695480        0.0817406774
 C          7.6706297033       -0.5589274606        0.1287519536
 N          8.6285993943       -1.5344456480       -0.2531740867
 C          9.3209064515       -2.2223417184        0.7309050341
 C          9.0378606667       -1.9760595585        2.0776448462
 C          9.7151870860       -2.6399550407        3.0783760689
 C         10.6860681216       -3.5698305881        2.7535929495
 C         10.9528206582       -3.8303558959        1.4223680711
 C         10.2850809970       -3.1783769369        0.3947708336
 C         10.6088031414       -3.5285540510       -1.0452543772
 C         10.3231540648       -5.0257757870       -1.2626339352
 C         12.0957642598       -3.2261431427       -1.3058324097
 C          9.7740766445       -2.7252546585       -2.0244129813
 C          9.9416425489       -2.9234283983       -3.3879833369
 C          9.2253471175       -2.2062117078       -4.3281755300
 C          8.3205690570       -1.2505067579       -3.9031190944
 C          8.1343877538       -1.0327290553       -2.5543905790
 C          8.8429813050       -1.7708408676       -1.6016280426
 C          8.0819410042        0.6844274024        0.5643885811
 C          7.1401619329        1.6421769108        0.9472858305
 O          7.6864403700        2.8031807531        1.3929070217
 C          6.9267467404        3.8106437647        1.8856398442
 C          7.5893633620        4.9123080455        2.4139510021
 C          6.8489889550        5.9603916309        2.9327011707
 C          5.4663087974        5.9324312211        2.9279793638
 C          4.8101055657        4.8316996667        2.3860839438
 C          5.5256388196        3.7464259393        1.8571524576
 O          3.4585792957        4.8445722142        2.3942155437
 C         -0.9662186345        1.9034473805       -0.9143901779
 C         -0.4421109154        2.8604988439       -1.7893812071
 C         -1.2714496628        3.6151741842       -2.5808776745
 C         -2.6550390337        3.4232183702       -2.5355847150
 C         -3.2209292725        2.4408390866       -1.7031451071
 C         -2.3321484425        1.7165278083       -0.8939043392
 B         -4.7568152153        2.2686185781       -1.7645326376
 C         -5.7320589733        1.2423174418       -1.1337881656
 C         -5.3878533985        0.0866886190       -0.4183853672
 C         -6.3256309895       -0.7587013820        0.1276492982
 C         -7.6831911630       -0.4746917770       -0.0226035470
 N         -8.6601546894       -1.3340373024        0.5468126235
 C         -8.9473369270       -1.2182068803        1.8969798864
 C         -8.2914458648       -0.2492023294        2.6620305836
 C         -8.5520940373       -0.1130333658        4.0091404729
 C         -9.4787088604       -0.9394418529        4.6183728247
 C        -10.1394837988       -1.8883100561        3.8602875044
 C         -9.8968224672       -2.0475107069        2.5029732242
 C        -10.6682956385       -3.0956490145        1.7236140575
 C        -10.3785893968       -4.4788051641        2.3347868907
 C        -12.1705952118       -2.7736065267        1.8217621726
 C        -10.2695168989       -3.1204518221        0.2601199761
 C        -10.8760812572       -4.0273009642       -0.5980011274
 C        -10.5414594421       -4.1085709640       -1.9369956030
 C         -9.5648725097       -3.2692898751       -2.4416454505
 C         -8.9466285953       -2.3580410155       -1.6118889451
 C         -9.2955016546       -2.2626317452       -0.2615313144
 C         -8.0712016155        0.6385677623       -0.7397428749
 C         -7.1103563530        1.4812327699       -1.3036381513
 O         -7.6339388988        2.5147914781       -2.0122335304
 C         -6.8526038703        3.3837527779       -2.6971556492
 C         -7.4918334887        4.3443507159       -3.4720770854
 C         -6.7294106482        5.2475606986       -4.1921964618
 C         -5.3475896029        5.2133241020       -4.1489418926
 C         -4.7151284856        4.2559205639       -3.3620074147
 C         -5.4531779794        3.3193720018       -2.6218068044
 O         -3.3638155697        4.2579386919       -3.3433133169
 H          1.2698487904        0.5689399371       -1.7633413729
 H         -0.1066106830       -0.5015816506       -1.5150186276
 H          1.2906372502       -0.6218197364       -0.4495677110
 H          0.0801962449       -0.1303043475        1.7020173337
 H         -1.3168088488       -0.4646299612        0.6833113187
 H         -1.2753667045        0.9944747515        1.6895109516
 H         -0.5671430984        3.3659431733        1.2332681168
 H          0.9724232643        4.9685926504        2.3032887431
 H          2.7648262237        0.9850493938        0.0675200377
 H          4.3423678713       -0.1562656279        0.4182533029
 H          5.9921019600       -1.8367455437       -0.2406912780
 H          8.2750537388       -1.2590102711        2.3391586703
 H          9.4806651683       -2.4302589511        4.1114540533
 H         11.2261858928       -4.0936093707        3.5275080848
 H         11.7050455481       -4.5668151277        1.1828705723
 H         10.5552391247       -5.3215320296       -2.2820033013
 H          9.2707735911       -5.2320805037       -1.0762901472
 H         10.9165956696       -5.6367599276       -0.5881860021
 H         12.7310771410       -3.7902205633       -0.6285306993
 H         12.3716047224       -3.4830325310       -2.3248872258
 H         12.2890504058       -2.1656710274       -1.1549396426
 H         10.6535960544       -3.6576432201       -3.7338060239
 H          9.3790691004       -2.3876512749       -5.3810203331
 H          7.7594706670       -0.6696143242       -4.6200560638
 H          7.4345617324       -0.2777608199       -2.2305543241
 H          9.1316260057        0.9261789874        0.6304430029
 H          8.6672929718        4.9312213315        2.4170675445
 H          7.3604979298        6.8152527866        3.3483870872
 H          4.8873733242        6.7482773545        3.3300474075
 H          0.6251767660        3.0223693738       -1.8274064316
 H         -0.8785835548        4.3717621881       -3.2425108569
 H         -2.7543626123        0.9955361467       -0.2160519566
 H         -4.3453572965       -0.1626580591       -0.3064999298
 H         -6.0279028151       -1.6412957562        0.6737731017
 H         -7.5734626015        0.4045386776        2.1909840264
 H         -8.0315146852        0.6414801358        4.5800815377
 H         -9.6908406942       -0.8439436902        5.6723788996
 H        -10.8669063987       -2.5204090764        4.3470003372
 H         -9.3159045552       -4.7015398061        2.2579659166
 H        -10.6595936929       -4.5063144185        3.3839675686
 H        -10.9301615112       -5.2569090458        1.8144390378
 H        -12.4994013366       -2.7657764097        2.8572975071
 H        -12.3671221917       -1.7931993057        1.3917880705
 H        -12.7613869293       -3.5090628016        1.2826935179
 H        -11.6333589924       -4.6949308876       -0.2153832349
 H        -11.0348293274       -4.8244579752       -2.5766313868
 H         -9.2801180884       -3.3229320211       -3.4819735618
 H         -8.1797523752       -1.7117745069       -2.0104583440
 H         -9.1164247853        0.8636558553       -0.8861550518
 H         -8.5691746877        4.3677381512       -3.5049242423
 H         -7.2226440616        5.9919111367       -4.7987204104
 H         -4.7511487220        5.9162014184       -4.7080920234
