  61
 
 C         -7.6195271831        3.0379576502        0.1642368194
 C         -6.4541187401        3.1660131287       -0.5735917789
 C         -5.5455637386        2.1272055942       -0.6328402498
 C         -5.7898240824        0.9412232417        0.0585543859
 N         -4.8722712409       -0.1167478511        0.0032122299
 C         -5.3424328506       -1.4352915858       -0.0588024042
 C         -6.4772622435       -1.7441232271       -0.8077735029
 C         -6.9434281899       -3.0433691094       -0.8601289877
 C         -6.2855184662       -4.0531394759       -0.1771472561
 C         -5.1560224782       -3.7517237181        0.5660565847
 C         -4.6869143408       -2.4541356443        0.6316075868
 C         -3.5032401559        0.1414919079        0.0071470342
 C         -2.9824010254        1.2162952646        0.7314139736
 C         -1.6294981897        1.4758227655        0.7254361038
 C         -0.7450006383        0.6657784512        0.0122579872
 C          0.6921700436        0.9385369878        0.0087695460
 C          1.1774344726        2.2692246472        0.0007149301
 N          2.4347455715        2.6041182136       -0.0025763648
 C          3.3614086076        1.6334496267       -0.0006545269
 N          4.6559272920        2.0256841467        0.0003756961
 C          5.5315707147        1.0621629269        0.0002611308
 C          5.1615634979       -0.3413576605       -0.0010030675
 N          3.9225493323       -0.7416143578       -0.0033222930
 C          2.9951708635        0.2517206049       -0.0032175633
 C          1.6311704947       -0.0731152573        0.0035767374
 C          6.3847150657       -1.1304887937       -0.0015937099
 C          6.6846297619       -2.4693258855       -0.0025737169
 C          8.0403115351       -2.8483986283       -0.0032101973
 C          9.0691001037       -1.9367720012       -0.0029657671
 C          8.7956671789       -0.5501066805       -0.0019593316
 C          9.7172639599        0.5216604475       -0.0018620372
 C          9.2715552540        1.8220913396       -0.0010361261
 C          7.9052583351        2.1610279049       -0.0001902444
 C          6.9845200163        1.1437523639       -0.0002492336
 C          7.4446911433       -0.1937995666       -0.0011728283
 C         -1.2687089895       -0.4123629942       -0.7023741692
 C         -2.6220281061       -0.6680755674       -0.7135052478
 C         -6.9628940261        0.8180292071        0.8019894163
 C         -7.8692585822        1.8594449736        0.8481024222
 H         -8.3285089651        3.8507623150        0.2054226144
 H         -6.2542399697        4.0788265480       -1.1151940552
 H         -4.6428343947        2.2248552987       -1.2180355789
 H         -6.9865457511       -0.9594777108       -1.3479878343
 H         -7.8223498790       -3.2698599819       -1.4455625314
 H         -6.6508719818       -5.0677491412       -0.2231470039
 H         -4.6404886410       -4.5315694917        1.1070343185
 H         -3.8127698890       -2.2192963780        1.2212096135
 H         -3.6496890730        1.8415793539        1.3060715091
 H         -1.2472077822        2.2981337649        1.3117103084
 H          0.4784435004        3.0959303861       -0.0239548731
 H          1.3502672825       -1.1157030240        0.0277324014
 H          5.9084106358       -3.2187657841       -0.0027894823
 H          8.2749563203       -3.9033421578       -0.0039287638
 H         10.0950849397       -2.2759604030       -0.0035753943
 H         10.7770518196        0.3105524336       -0.0025662045
 H          9.9960902406        2.6239222746       -0.0010964574
 H          7.5968960672        3.1947348444        0.0004265742
 H         -0.6074100942       -1.0371340513       -1.2842154154
 H         -3.0114240050       -1.4944898754       -1.2896732868
 H         -7.1551094558       -0.0971178635        1.3427927497
 H         -8.7732569014        1.7524252536        1.4293638120
