  58
 
 C          6.1246879717       -3.7774767981       -1.1039432726
 C          5.2365242985       -4.8270605162       -1.2952702053
 N          3.9254518660       -4.6998090097       -1.1719954984
 C          3.4393759672       -3.5174159437       -0.8532289709
 C          4.2340661273       -2.3903831635       -0.6406952237
 C          3.6331526239       -1.1034397410       -0.2848201915
 N          2.3152629483       -1.0211915083       -0.2539857610
 C          1.7253981403        0.1568721332        0.0948800829
 C          0.2754725577        0.1733676685        0.1018426662
 C         -0.4192396632       -0.8602281766       -0.5447270806
 C         -1.7940788077       -0.8814852578       -0.5761614136
 C         -2.5206620578        0.1259009032        0.0553325734
 N         -3.9382006362        0.1077487287        0.0311684457
 C         -4.6420974444        1.0900795787       -0.6532835814
 C         -4.0030075979        2.0989588264       -1.3687870969
 C         -4.7370741071        3.0661235333       -2.0328281637
 C         -6.1199811148        3.0409644526       -2.0032186574
 C         -6.7734330250        2.0297362924       -1.3176408156
 C         -6.0465243711        1.0577309161       -0.6525857645
 O         -6.7530499647        0.0740092332       -0.0160363986
 C         -6.0446081409       -0.8945495668        0.6419200351
 C         -6.7700576431       -1.8849877833        1.2808159180
 C         -6.1158421328       -2.8820081314        1.9861559945
 C         -4.7344148268       -2.8746676982        2.0615096470
 C         -4.0016685585       -1.8889094897        1.4239044932
 C         -4.6406525672       -0.8936926120        0.6894650014
 C         -1.8468409030        1.1499362559        0.7165796704
 C         -0.4700145418        1.1753504212        0.7365932117
 C          2.5102138663        1.2550950177        0.3943215936
 C          3.9074858445        1.1203360066        0.3286062579
 C          4.8141286784        2.1822480051        0.5877382944
 C          6.2139178246        1.9672273307        0.5011281621
 N          7.0886416580        2.9040390274        0.7248008489
 C          6.6594708469        4.1192910836        1.0501538581
 N          5.3775026283        4.4381190970        1.1637963327
 C          4.4787926359        3.5121257263        0.9434879702
 N          4.4299910011       -0.0963747234       -0.0115786956
 C          5.6132353311       -2.5365383725       -0.7712508395
 H          7.1872260844       -3.9306753049       -1.2138588190
 H          5.5864876609       -5.8167256875       -1.5585317178
 H          2.3647172561       -3.4464352633       -0.7540775728
 H          0.1518920642       -1.6344219161       -1.0321587100
 H         -2.3193970797       -1.6730050276       -1.0906022592
 H         -2.9255515278        2.1185563099       -1.4072811643
 H         -4.2191699875        3.8402528653       -2.5772443487
 H         -6.6926409013        3.7965826861       -2.5168236909
 H         -7.8496249021        1.9725972400       -1.2887087767
 H         -7.8457426917       -1.8532899464        1.2159262701
 H         -6.6872043176       -3.6522480684        2.4790690885
 H         -4.2164941653       -3.6379135724        2.6209503882
 H         -2.9259186315       -1.8842538270        1.4974915704
 H         -2.4145627741        1.9195762496        1.2194775632
 H          0.0279418562        1.9682503216        1.2724418083
 H          2.0695907427        2.2047322628        0.6471852144
 H          6.5746127582        0.9808348935        0.2377382249
 H          7.3940548252        4.8873800498        1.2316633642
 H          3.4503041988        3.8304792854        1.0503826005
 H          6.2541566490       -1.6824097560       -0.6118346698
