86
 xtb: 6.7.1 (edcfbbe)
C            6.23317727039697        2.03166856955454        2.12560087229791
O            5.76109961714141        0.99630691263634        1.28989248965089
C            4.61780112480095        1.13824745960898        0.57848511224433
C            3.89766487857070        2.32389247605563        0.41659064763069
C            4.36166023051490        3.58984568859893        0.81704205237520
N            4.67879248918797        4.66625417089186        1.07685080563413
C            2.62275409851952        2.31180787954334       -0.22177753600555
C            1.89368905913468        3.60086986740635       -0.43373279537622
C            2.07398190416014        1.11849158810984       -0.58731044095962
C            2.77100582895260       -0.09708010804971       -0.44463017742602
C            2.16570084671867       -1.35788820474410       -0.67071893776935
Se           0.38573200506626       -1.44938885703279       -1.38832264562752
Se          -0.79655072838644       -1.65501949001218        0.65601322876359
C           -2.53690328815413       -1.17903406291872       -0.00809169369563
C           -3.33215015870945       -2.10959101010545       -0.66691317063118
C           -2.84286571066610       -3.47127995082286       -1.03988529409440
N           -4.59855140150925       -1.84613962707718       -0.94847599910951
C           -5.13990028832022       -0.65993379450771       -0.69169759545223
N           -6.48502330294731       -0.59680612560300       -0.74193627892102
C           -7.22390231573586       -1.76081606243376       -1.18244116483570
C           -7.54158405376221       -2.68974353674408       -0.00069152729163
C           -7.71676492681103       -1.85683645197544        1.27461308362415
C           -8.29192942708189       -0.49004653526067        0.91676709927123
C           -7.26858308456071        0.30071223227417        0.08378767968538
C           -4.29713505582353        0.46405635167093       -0.37710207039226
C           -4.64303305522009        1.82250708949900       -0.60960722224969
O           -5.74782429607287        1.99596169018011       -1.37313865199470
C           -6.12928313379821        3.27483039655413       -1.83544533124881
C           -3.81739029107914        2.83449523941786       -0.11409668206108
C           -4.11310240084434        4.20705446899366       -0.18867289995921
N           -4.28575354289014        5.34572174906913       -0.17710176010924
C           -2.59188553572565        2.50691577313133        0.53826163790516
C           -1.74982740218975        3.60130142346070        1.11460946332623
C           -2.18826109716213        1.20551740543610        0.58351542588713
C           -2.99324346078816        0.15753184321674        0.09515849918843
C            2.85879442793029       -2.50602894770508       -0.31015943883636
C            2.22138901193033       -3.85667643936240       -0.26903314835384
N            4.15495670324066       -2.46076734118712       -0.03669357421614
C            4.82703907206513       -1.31625311265100       -0.01502262315820
N            6.17438984804410       -1.41232478635388       -0.02482062196520
C            6.79019588276974       -2.71598322555220        0.13283967851996
C            8.09503098433523       -2.57421122533060        0.91379476893832
C            9.04176698907265       -1.61806003718369        0.19548352749217
C            8.34409218982096       -0.27603036450583       -0.00248210708475
C            7.02693107252706       -0.48599993862454       -0.74410724982303
C            4.11308838811789       -0.06600203481117        0.01752038028044
H            5.41976034316792        2.46130985182566        2.73964729633389
H            6.97515941851376        1.59680599562305        2.74275504430436
H            6.66614708466652        2.86415007080518        1.52926337263652
H            2.45483925240967        4.25238554366249       -1.10472792290602
H            1.71219987406186        4.11354230093263        0.47935527019516
H            0.91109170970748        3.40256082391133       -0.93321705491227
H            1.06054714761993        1.07218847576487       -1.00435184162861
H           -2.54647986593842       -4.02250785836694       -0.16911606243298
H           -3.64251653847696       -4.00938616517470       -1.56940658489535
H           -1.98372714281224       -3.38798686019112       -1.71436949081224
H           -6.63347861121025       -2.25605756811058       -1.95007920984792
H           -8.14386721757184       -1.36679579928980       -1.65444142837317
H           -6.73935353808751       -3.39272630254117        0.11114370959726
H           -8.46072204399375       -3.22410240412191       -0.24701627913625
H           -6.75262942735465       -1.71650353091887        1.74973293529413
H           -8.37762458088320       -2.36695908001124        1.95813614895391
H           -8.52053766109672        0.08716926251685        1.81405771972412
H           -9.21644888717990       -0.60370436526217        0.34995235861315
H           -7.77339900114124        1.05499734380151       -0.54030528257527
H           -6.58355179282144        0.84320951543432        0.75767083432317
H           -6.91785720842919        3.11545894770023       -2.51975666636690
H           -5.28417340352892        3.79890919209833       -2.33115848250357
H           -6.46359444812140        3.92781285258529       -0.99964108219671
H           -1.46690091260236        4.32185757756301        0.38486319788595
H           -0.81886227204197        3.16975192957133        1.56610160498430
H           -2.27672027593112        4.10733883403839        1.92679158508146
H           -1.21099734659654        0.93852489705251        1.00654493777077
H            1.39442548239463       -3.86031431247157        0.45255231603550
H            1.83933377566141       -4.13171319234482       -1.23130908246245
H            2.96424269324196       -4.59928467888303        0.06338227096187
H            6.99482042636073       -3.14872514095564       -0.83330454719213
H            6.09238105144751       -3.34604517673369        0.67986227719842
H            7.87080897357564       -2.15816947082245        1.92423368721337
H            8.55829292073014       -3.53188114009943        1.04688857071640
H            9.31774118389350       -2.01871821531608       -0.76065987695436
H            9.95321763175574       -1.45432337429968        0.78806146451518
H            8.12960595904623        0.19941045791089        0.96610165373615
H            8.96525187461422        0.42232779662942       -0.57805728474992
H            7.24003323147169       -0.92019852684390       -1.72640942130885
H            6.50312375787412        0.46376019785300       -0.91030596395296
