66
 xtb: 6.7.1 (edcfbbe)
C            0.60393657737676       -0.00090832375146        0.00039577724771
C           -0.60376194328989       -0.00205955147177        0.00028114850469
C           -2.01627241531782       -0.00192550754355        0.00056273664086
C           -2.72026325487799       -0.87838142797192        0.82878933580740
C           -4.09958295358203       -0.87414375994900        0.83090417903864
C           -4.79921280843363       -0.00167329207634        0.00082245571215
N           -6.21113546792637       -0.00166532709822        0.00081194814644
C           -6.92029001579532        1.12233595519967        0.42906504564238
C           -6.28697606721361        2.25883894524863        0.91617556591239
C           -7.02228468641980        3.35810633617887        1.33436350784429
C           -8.40076435428750        3.33616297951203        1.28249239372810
C           -9.04935466126102        2.19747285523943        0.82598260434100
C           -8.32148156100615        1.09864136482938        0.41002268930183
O           -9.03425824840286       -0.00141210809311        0.00001105014866
C           -8.32144504832690       -1.10167104289502       -0.40939837236035
C           -9.04929385187478       -2.20045034210210       -0.82553840750667
C           -8.40066745297134       -3.33935461023928       -1.28146028094766
C           -7.02216616108025       -3.36154352820760       -1.33260190433607
C           -6.28688715583670       -2.26231608674458       -0.91426250832668
C           -6.92024672958992       -1.12560836997656       -0.42768199508138
C           -4.09958246716402        0.87072531179430       -0.82934355466545
C           -2.72027238934562        0.87467471567481       -0.82752246330206
C            2.01645455541594       -0.00058206551036        0.00036749312931
C            2.72017054414345        0.90517202382773        0.79671032365929
C            4.09949044258102        0.90182484776981        0.79851388046504
C            4.79930191004200        0.00069351197968       -0.00017152194238
N            6.21128080867011        0.00153777771427       -0.00066980899303
C            6.92120597375180       -1.10501001083093        0.46954481430975
C            6.28860146025534       -2.22288120727965        0.99883345948196
C            7.02466199745044       -3.30503331060319        1.45830846484281
C            8.40313430948047       -3.28389539815409        1.40604040014229
C            9.05098679211744       -2.16274770850855        0.90699515108419
C            8.32238449928593       -1.08096695800595        0.44970887903609
O            9.03432512378322        0.00334289241157       -0.00167309437476
C            8.32068271230311        1.08681634252245       -0.45237400038705
C            9.04758180100662        2.16960936189469       -0.90997940669455
C            8.39795231394094        3.29000884364355       -1.40839392382365
C            7.01942083337475        3.30936916843136       -1.45974640575150
C            6.28506703864727        2.22619127420000       -0.99995746276324
C            6.91946081688928        1.10906310427770       -0.47124036103184
C            4.09999286373275       -0.90115186976791       -0.79848511471487
C            2.72067282798548       -0.90576067326285       -0.79616989696088
H           -2.17594968355175       -1.57600532234968        1.44798899873212
H           -4.64676075625622       -1.56751893097413        1.45266055296837
H           -5.21035365859861        2.27005546784106        1.00786604151543
H           -6.50336927875473        4.20544481803842        1.76019335663129
H           -8.97770453384006        4.16757020513281        1.65730008066518
H          -10.12565340333805        2.12926679798046        0.81736490001390
H          -10.12559541229268       -2.13200329390907       -0.81756577481627
H           -8.97757048240140       -4.17072288605837       -1.65640788401063
H           -6.50318220093933       -4.20905866277474       -1.75796461957677
H           -5.21023521100532       -2.27376201079651       -1.00541488739284
H           -4.64675900831943        1.56416689848724       -1.45098559632555
H           -2.17591412747589        1.57213427435757       -1.44682653464286
H            2.17559613469629        1.62409813909950        1.39079870274643
H            4.64653056279798        1.61728136617477        1.39484931486502
H            5.21196895860646       -2.23147336604196        1.09046940523025
H            6.50633919822378       -4.13617969048459        1.91557452901031
H            8.98066507423529       -4.10008466024968        1.81211258699402
H           10.12725446019129       -2.09415358265312        0.89602391129468
H           10.12394191098772        2.10238388198113       -0.89979615616245
H            8.97414776527570        4.10700795735044       -1.81472686073727
H            6.49970532709190        4.13990995738034       -1.91653410702735
H            5.20836288846170        2.23341508291328       -1.09090175485666
H            4.64744133302591       -1.61608515734055       -1.39504492073704
H            2.17652418443059       -1.62513525066765       -1.39007120627555
