  69
 
 C          7.4991422679       -2.7614356996       -2.3842906125
 C          6.1137137953       -2.8071064420       -2.4104316894
 C          5.3692437708       -2.0092851897       -1.5616197378
 C          6.0002271396       -1.1513147743       -0.6620970658
 C          7.4064223939       -1.0982683634       -0.6567631600
 C          8.1442961698       -1.9024487831       -1.5104178316
 O          8.0972419407       -0.2577989493        0.1709659288
 C          7.3788617454        0.5401185412        1.0171036373
 C          8.0882066996        1.3871624585        1.8533257888
 C          7.4142901705        2.2075985346        2.7424393386
 C          6.0296222409        2.1710191578        2.8021225017
 C          5.3134758624        1.3291192897        1.9717758622
 C          5.9728065393        0.5091937843        1.0572474832
 N          5.2871302002       -0.3420584506        0.2066503522
 C          3.8667580787       -0.3764069433        0.2217605655
 C          3.2136981961       -1.4609592084        0.7996004790
 C          1.8286607406       -1.5704704278        0.8557800835
 C          1.0625820684       -0.5454391396        0.3048301741
 C          1.7375118545        0.5579824280       -0.2844186355
 C          0.8349433724        1.5126636961       -0.8024650424
 C          1.3393006978        2.6473713649       -1.4186845331
 C          2.7262978349        2.7892057334       -1.4990236317
 C          3.6097391659        1.8539096895       -0.9907163408
 C          3.1264397153        0.6916804075       -0.3536672069
 C         -0.4826432347        1.0009528072       -0.5299461350
 N         -1.6616603844        1.4815202844       -0.7886208375
 C         -2.7541367743        0.7865534927       -0.4227973909
 C         -4.0366221086        1.2631292993       -0.6904482347
 C         -5.1715668395        0.5537908218       -0.3317476677
 C         -6.4891767037        1.0784691255       -0.7089930561
 C         -6.8162034273        2.4199905568       -0.5029733614
 C         -8.0672313260        2.8702004115       -0.8848533092
 N         -8.9844759650        2.0996454476       -1.4500689776
 C         -8.6708847317        0.8302811220       -1.6619411052
 C         -7.4529971041        0.2722502599       -1.3177416407
 C         -5.0297188162       -0.6813793741        0.3454610312
 C         -6.1991009036       -1.4284240735        0.8346699571
 C         -7.2015808302       -0.8056072851        1.5781821782
 C         -8.2622531003       -1.5672551983        2.0367370723
 N         -8.3858528116       -2.8656251432        1.8093054884
 C         -7.4311396652       -3.4602470431        1.1110486981
 C         -6.3235275373       -2.7990216068        0.6092828300
 C         -3.7701617974       -1.1764432373        0.6152201076
 C         -2.6064859659       -0.4836327996        0.2491892321
 N         -1.3954735865       -0.9701860301        0.5154700229
 C         -0.3282879529       -0.2866223549        0.1592537198
 H          8.0784924293       -3.3860759166       -3.0452661279
 H          5.6056432713       -3.4658071621       -3.0972863325
 H          4.2917729887       -2.0405338766       -1.5890014019
 H          9.2199783871       -1.8362111167       -1.4748967811
 H          9.1647304455        1.3851248655        1.7916287242
 H          7.9713668294        2.8662999223        3.3893532868
 H          5.4999306282        2.7999855506        3.5003796548
 H          4.2370171697        1.2984179326        2.0245474132
 H          3.8186309769       -2.2487195800        1.2267816126
 H          1.3650714804       -2.4278573843        1.3175036936
 H          0.6832781834        3.4004334348       -1.8272056396
 H          3.1259111550        3.6705546908       -1.9800549482
 H          4.6732819348        2.0186765938       -1.0826522797
 H         -4.1254834052        2.1989915572       -1.2216827146
 H         -6.1112828795        3.0885380743       -0.0324150445
 H         -8.3587511545        3.9016011554       -0.7307990560
 H         -9.4410079063        0.2334417003       -2.1342466925
 H         -7.2484720269       -0.7659225340       -1.5297711729
 H         -7.1460075658        0.2483571305        1.8031415645
 H         -9.0581955448       -1.1185238546        2.6175100095
 H         -7.5669043383       -4.5220771331        0.9485455726
 H         -5.5770727283       -3.3293535247        0.0376728117
 H         -3.6523177346       -2.1069302104        1.1501736083
