  85
 
 C         -8.6766192028        0.2468816668       -1.2378253174
 C         -7.8173057510        0.0311621909        0.0032276452
 C         -8.6775714051       -0.1778699827        1.2447656945
 C         -6.8655234079       -1.1758585964       -0.2008940610
 O         -7.2850339806       -2.3114366210       -0.3962812859
 C         -5.5335299256       -0.6816837971       -0.1178672979
 C         -4.3276504910       -1.3747118486       -0.2253597727
 C         -3.1323709351       -0.6991765082       -0.0959168768
 C         -1.8731564450       -1.4464951426       -0.0974389591
 C         -0.8888455403       -1.1870897497        0.8615791045
 C          0.3249450026       -1.8368424711        0.8222757129
 C          0.5831419810       -2.7683538175       -0.1782705839
 N          1.8651054889       -3.3727275080       -0.2516857959
 C          2.9597705824       -2.6112374907       -0.6380075726
 C          2.8248439337       -1.3033846700       -1.0932098990
 C          3.9383163872       -0.5684882967       -1.4617816766
 C          5.2014737538       -1.1251940612       -1.3861384790
 C          5.3512117924       -2.4356457223       -0.9600321947
 C          4.2428464604       -3.1801838271       -0.5974293498
 O          4.4521512023       -4.4767735807       -0.2110433268
 C          3.3536281374       -5.2318856474        0.1083177070
 C          3.5704045790       -6.5537340695        0.4539559981
 C          2.5039978492       -7.3635606252        0.8123337461
 C          1.2230005666       -6.8425785100        0.8340492802
 C          0.9973043098       -5.5214107783        0.4875386782
 C          2.0537948348       -4.7005398978        0.1066734345
 C         -0.4046716274       -3.0791548426       -1.1052687216
 C         -1.6209732163       -2.4279487383       -1.0579287739
 C         -3.1267995552        0.7251295150        0.1002452972
 C         -1.8618665404        1.4626641383        0.1015013418
 C         -1.6024760442        2.4430031628        1.0612309529
 C         -0.3812054014        3.0848575744        1.1084342946
 C          0.6045301045        2.7653084551        0.1822663665
 N          1.8915087742        3.3591624636        0.2561332643
 C          2.0930222331        4.6825652591       -0.1110532416
 C          1.0447183051        5.5101194441       -0.4999204961
 C          1.2831056511        6.8266399137       -0.8555081966
 C          2.5687545733        7.3360956153       -0.8348291813
 C          3.6270475772        6.5194119147       -0.4679859328
 C          3.3976019876        5.2021456976       -0.1131986003
 O          4.4884079051        4.4394868216        0.2146964711
 C          4.2664096983        3.1475032161        0.6094480061
 C          5.3669559453        2.3953509944        0.9800276262
 C          5.2041402982        1.0890724715        1.4141350037
 C          3.9358298510        0.5441718847        1.4896096097
 C          2.8300534607        1.2867392825        1.1133205983
 C          2.9781429179        2.5904279917        0.6503582981
 C          0.3395746545        1.8350620503       -0.8176330372
 C         -0.8792980620        1.1948860842       -0.8570078517
 C         -4.3167954284        1.4098989484        0.2300694374
 C         -5.5280022991        0.7262361699        0.1230821279
 C         -6.8561066785        1.2307879055        0.2068272012
 O         -7.2666236525        2.3695220361        0.4024819001
 H         -9.3077083470       -0.6234004475       -1.4055951009
 H         -9.3076453079        1.1228662516       -1.1029411022
 H         -8.0484816186        0.3988592876       -2.1141689756
 H         -9.3019608123        0.6971922750        1.4127215439
 H         -9.3152863696       -1.0490734075        1.1103596916
 H         -8.0501439254       -0.3344495555        2.1208079228
 H         -4.3441905944       -2.4461151058       -0.3621150311
 H         -1.0879284373       -0.4749347053        1.6480514304
 H          1.0857178210       -1.6278920106        1.5605396482
 H          1.8405707937       -0.8669850480       -1.1541374933
 H          3.8145366860        0.4457252927       -1.8080504973
 H          6.0696433681       -0.5497165123       -1.6643080185
 H          6.3214109821       -2.9026907340       -0.9060934025
 H          4.5815907614       -6.9274534134        0.4410438664
 H          2.6806836604       -8.3932296770        1.0792596718
 H          0.3888107977       -7.4621944042        1.1237735548
 H         -0.0020347370       -5.1168592584        0.5160950940
 H         -0.2044946389       -3.8139256367       -1.8714398453
 H         -2.3753701685       -2.6504291894       -1.7977126341
 H         -2.3554381097        2.6720299383        1.8004736276
 H         -0.1756583335        3.8189880357        1.8737915782
 H          0.0418484977        5.1142868360       -0.5274127955
 H          0.4551988821        7.4517050702       -1.1514843125
 H          2.7553368197        8.3621205981       -1.1089602788
 H          4.6414961390        6.8841928415       -0.4553793306
 H          6.3415214122        2.8531763658        0.9257663969
 H          6.0663094575        0.5076110616        1.6984585770
 H          3.8019725562       -0.4667244149        1.8417890270
 H          1.8416545884        0.8597206994        1.1740654025
 H          1.0990662002        1.6194985518       -1.5553230466
 H         -1.0836120806        0.4837300285       -1.6430326740
 H         -4.3250236763        2.4814061852        0.3667464329
