  69
 
 N        -10.6428554719       -2.6940017955        0.2971009264
 C         -9.5950828842       -2.2211171964        0.2390375958
 C         -8.3170226295       -1.6421715851        0.1695240199
 C         -7.7820614020       -1.2536554594       -1.0668553040
 C         -6.5281506864       -0.6953854894       -1.1301738448
 C         -5.7659078557       -0.4801626119        0.0316865902
 C         -4.4492546112        0.1235561686       -0.0413145276
 C         -4.1280803227        1.2489198717        0.7849068896
 C         -5.0818933982        1.8618253895        1.6024429134
 C         -4.7431616841        2.8998225322        2.4677362575
 C         -3.4380630857        3.3422290719        2.5295205242
 C         -2.4838658499        2.8009413684        1.6730721123
 C         -2.8119621326        1.8010535740        0.7501779136
 C         -1.8646669187        1.3225603502       -0.2033313297
 C         -0.5458367895        1.9466764555       -0.2978542449
 C         -0.4177383891        3.3230674654       -0.5258881319
 C          0.8295898657        3.9098440213       -0.6314646268
 C          1.9780848264        3.1485811296       -0.5087250582
 C          1.8696547334        1.7759940544       -0.2741342966
 C          3.0499747709        0.9528385394       -0.1341846870
 N          3.0654042279       -0.3232716131        0.1285738629
 C          4.3884175272       -0.6652978310        0.1669299871
 C          5.0089006673       -1.9213986304        0.4207761917
 C          4.2563492076       -3.0690605282        0.6906882182
 C          4.8818954615       -4.2660814893        0.9393719321
 C          6.2739658169       -4.3279334097        0.9194949404
 C          7.0246131830       -3.2060867061        0.6536534663
 C          6.4250460383       -1.9634031069        0.3943215223
 C          7.2007133236       -0.7665450712        0.1119993328
 C          8.6029653470       -0.7648731180        0.0654354537
 C          9.3170930549        0.3801171498       -0.2039412620
 C          8.6649832449        1.5888244798       -0.4421331038
 C          7.2937056277        1.6335558857       -0.4062641076
 C          6.5560525748        0.4739925243       -0.1338453163
 C          5.1413094880        0.4683638479       -0.0894308145
 O          4.2854373689        1.5018559876       -0.2802268051
 C          0.6137635898        1.1838770609       -0.1732369193
 C         -2.2009704887        0.2401877667       -1.0701580657
 C         -1.3228482425       -0.2082201225       -2.0635721468
 C         -1.6094813738       -1.3299583110       -2.8359516489
 C         -2.7773975151       -2.0310967286       -2.6190139685
 C         -3.6975538385       -1.5687157391       -1.6808116040
 C         -3.4687421233       -0.4038698970       -0.9427672768
 C         -6.3201730184       -0.8676129775        1.2644511906
 C         -7.5643901384       -1.4465326594        1.3360848169
 H         -8.3674967011       -1.3923175155       -1.9644676824
 H         -6.1349326188       -0.3726957869       -2.0829191740
 H         -6.1089369621        1.5337522043        1.5619773148
 H         -5.5044834923        3.3418960472        3.0927946608
 H         -3.1532745324        4.1184062185        3.2240371499
 H         -1.4675810470        3.1595800822        1.7252134123
 H         -1.3082241672        3.9220111704       -0.6469008999
 H          0.9079024276        4.9709920452       -0.8168518829
 H          2.9541759791        3.6018159861       -0.5896853184
 H          3.1806301771       -2.9801628995        0.6979199733
 H          4.3031899389       -5.1532758299        1.1491631164
 H          6.7701109380       -5.2673544178        1.1154621829
 H          8.0985123509       -3.2998406606        0.6489479449
 H          9.1490852857       -1.6770882404        0.2424289507
 H         10.3961596260        0.3420375729       -0.2318981610
 H          9.2359107206        2.4807500358       -0.6526757776
 H          6.7588794837        2.5545501243       -0.5871832985
 H          0.5569527418        0.1262513690        0.0318959078
 H         -0.4011272905        0.3250511719       -2.2367596178
 H         -0.9051906255       -1.6536232230       -3.5876835754
 H         -2.9923112093       -2.9291004327       -3.1785988351
 H         -4.6024762265       -2.1334522393       -1.5185630267
 H         -5.7344865547       -0.7478788433        2.1638884750
 H         -7.9705327946       -1.7602891876        2.2870777186
