  72
 
 N          1.9953919862        4.9594270712       -0.7446866992
 C          1.1078480248        4.2981125496       -0.4038852587
 C          0.0062610979        3.5452784028       -0.0221411706
 C         -1.0895115954        4.3118261832        0.3486590655
 N         -1.9717466248        4.9851681868        0.6795388384
 C          0.0021944224        2.1082973740       -0.0121889047
 C          1.2497114625        1.4010910139        0.0391706239
 C          2.3880069364        1.9329273029        0.6801126116
 C          3.5861145406        1.2648858929        0.6855456875
 C          3.7167058240        0.0235209285        0.0484693542
 N          4.9380551379       -0.6478698630        0.0395594698
 C          4.9679299139       -2.0417890770        0.1273542661
 C          4.0478288100       -2.7178457527        0.9328674308
 C          4.0803863267       -4.0957229467        1.0168166043
 C          5.0252488035       -4.8203220778        0.3059190069
 C          5.9397985346       -4.1543069261       -0.4962410815
 C          5.9153572660       -2.7768591249       -0.5899896246
 C          6.1300815099        0.0739294315       -0.0595729574
 C          7.2684503438       -0.3432324457        0.6354102771
 C          8.4438720572        0.3741815812        0.5348966367
 C          8.5054179087        1.5141831608       -0.2524504562
 C          7.3776281478        1.9342514111       -0.9417264869
 C          6.1974061913        1.2231737063       -0.8516753432
 C          2.5920623976       -0.5246356882       -0.5854932218
 C          1.3952075572        0.1429387643       -0.5855851010
 C         -1.2471420393        1.4047777185       -0.0551895496
 C         -2.3859820790        1.9346704079       -0.6971595074
 C         -3.5850229414        1.2683993713       -0.6968374951
 C         -3.7164842481        0.0306130827       -0.0528503475
 N         -4.9382853684       -0.6397405864       -0.0399661378
 C         -4.9698375295       -2.0340796821       -0.1195364069
 C         -4.0501069893       -2.7163865260       -0.9201863680
 C         -4.0850828767       -4.0946731017       -0.9962509509
 C         -5.0320177969       -4.8135007733       -0.2822545154
 C         -5.9461571648       -4.1412712081        0.5151791591
 C         -5.9192799530       -2.7633713253        0.6010899268
 C         -6.1299188355        0.0835731244        0.0535231545
 C         -7.2673176273       -0.3359324707       -0.6416249185
 C         -8.4423664674        0.3828162084       -0.5464807250
 C         -8.5044765124        1.5263514127        0.2356824281
 C         -7.3775978568        1.9487610392        0.9250269372
 C         -6.1977117295        1.2364662458        0.8401958095
 C         -2.5919085881       -0.5149155207        0.5836708907
 C         -1.3941953039        0.1509347322        0.5783413279
 H          2.3102746298        2.8717060554        1.2085984031
 H          4.4336977048        1.6873878424        1.2050379276
 H          3.3239631933       -2.1516052739        1.4999214984
 H          3.3693672943       -4.6068465568        1.6486828277
 H          5.0486632538       -5.8970687301        0.3762106818
 H          6.6728107429       -4.7124876723       -1.0592699665
 H          6.6171941439       -2.2598713279       -1.2273525448
 H          7.2164056944       -1.2205425550        1.2629907247
 H          9.3156126470        0.0468000865        1.0815976295
 H          9.4255609088        2.0732819706       -0.3271650366
 H          7.4179179901        2.8184776939       -1.5602486955
 H          5.3240705489        1.5447044745       -1.3999638155
 H          2.6847642028       -1.4670774921       -1.1051992400
 H          0.5535195368       -0.2745258949       -1.1179116627
 H         -2.3077983118        2.8701729634       -1.2312814861
 H         -4.4327062117        1.6891931090       -1.2175589896
 H         -3.3247095718       -2.1547547060       -1.4898548268
 H         -3.3743584738       -4.6107015079       -1.6244548651
 H         -5.0573131148       -5.8905877145       -0.3464256025
 H         -6.6807277446       -4.6948856823        1.0806852374
 H         -6.6208374092       -2.2414741353        1.2347491283
 H         -7.2147928795       -1.2161724672       -1.2650503239
 H         -9.3133938237        0.0535954281       -1.0932151064
 H         -9.4243780471        2.0863736688        0.3063322919
 H         -7.4184267203        2.8357361302        1.5395550542
 H         -5.3249920992        1.5597890280        1.3884024664
 H         -2.6853587893       -1.4539586052        1.1093834376
 H         -0.5526020497       -0.2643642139        1.1124980918
