  53
 
 O         -0.5899904336        1.0473104002       -1.7840281473
 C         -1.5685661247        0.7346568524       -1.0997335602
 O         -2.7805342053        0.9204084348       -1.6833251422
 C         -3.9428827482        0.6659063052       -1.0153573646
 C         -5.1293648318        0.9193374128       -1.6706457583
 C         -6.3416531178        0.6629449549       -1.0318145049
 C         -6.3558194814        0.1461980671        0.2589270658
 C         -5.1798245152       -0.1111253421        0.9220727730
 C         -3.9353152480        0.1398452937        0.2963986489
 C         -2.6976824265       -0.1378258558        0.9223775361
 O         -2.7218989452       -0.6581945990        2.1466720113
 C         -1.4965631016        0.2392900153        0.2367069549
 C         -0.1561138016        0.2158969757        0.9307820871
 C          0.7229647847        1.4125098861        0.6627722890
 C          0.1287392107        2.6850981239        0.5619037213
 C          0.8908505409        3.8004661903        0.3644855749
 C          2.2953139502        3.7104034121        0.2675594767
 C          3.1112886208        4.8387840895        0.0539000328
 C          4.4728999728        4.7122274763       -0.0201541032
 C          5.0753417879        3.4537940767        0.1171466799
 C          4.3090329181        2.3390071770        0.3258831807
 C          2.9044299344        2.4364708332        0.4046366908
 C          2.0903139779        1.3060088392        0.6122016171
 C          0.4089550182       -1.1379070509        0.5543133783
 C          1.1708190287       -1.4142663261       -0.6069744990
 O          1.3953287638       -0.5632128062       -1.5933984700
 C          1.8034372422       -2.6901715443       -0.6993571387
 C          2.6560343454       -3.0310392187       -1.7699669416
 C          3.2289998885       -4.2793212410       -1.8311637630
 C          2.9782222010       -5.2205086696       -0.8381471603
 C          2.1416499736       -4.9093745491        0.2262035735
 C          1.5624549876       -3.6550005860        0.2976937886
 O          0.7408189302       -3.3936774865        1.3495852518
 C          0.1682396858       -2.1771540311        1.5119673744
 O         -0.5283696209       -2.0324143552        2.5185139429
 H         -5.0976466133        1.3140099897       -2.6732634799
 H         -7.2666229102        0.8704004980       -1.5458604748
 H         -7.2987736455       -0.0518854302        0.7455071001
 H         -5.1701590424       -0.5085950523        1.9236183977
 H         -1.8717580327       -1.1089069069        2.4047849503
 H         -0.3305090656        0.1965077910        2.0161069113
 H         -0.9460384233        2.7686025614        0.6410858806
 H          0.4243201899        4.7712856680        0.2817536383
 H          2.6426735375        5.8067433336       -0.0513555526
 H          5.0922428855        5.5815214469       -0.1849496034
 H          6.1504473063        3.3712799487        0.0554708748
 H          4.7687578583        1.3665344744        0.4287837103
 H          2.5711622491        0.3450653161        0.7320626778
 H          0.7442903954        0.1977909545       -1.6175089175
 H          2.8389788224       -2.2872934144       -2.5282469361
 H          3.8790973386       -4.5308012811       -2.6551734565
 H          3.4330046409       -6.1971945096       -0.8886847817
 H          1.9304402992       -5.6253268569        1.0038113020
