  81
 
 C         -1.2501479838       -2.0126324702       -1.7752807303
 C         -0.5775470052       -1.0064606372       -0.8890136151
 C          0.8081173919       -0.9515234254       -0.8527845433
 C          1.4908200843       -0.0366439299       -0.0609221854
 C          2.9643758540       -0.0374620176       -0.0467927808
 C          3.6556031400       -0.5983896111        1.0643528445
 C          2.9586683828       -1.2019427466        2.1147831650
 C          3.6294920520       -1.8103354824        3.1730436596
 C          5.0059659748       -1.8554747715        3.1730787616
 C          5.7237168113       -1.2714703567        2.1286763397
 C          5.0809561358       -0.6052448128        1.0845206093
 C          5.8069470653       -0.0057849658        0.0021520186
 C          7.2610106540        0.0127476546        0.0276779715
 C          8.0068267009       -0.5053939062       -1.0414404250
 C          9.3821842233       -0.4977537046       -1.0177086184
 C         10.0601158795        0.0491135334        0.0770365086
 C         11.4689315485        0.0672492148        0.1018941795
 N         12.6167308822        0.0820558696        0.1221775465
 C          9.3300321790        0.5776437593        1.1469670658
 C          7.9549391178        0.5494559149        1.1222769569
 C          5.1046116609        0.5684986207       -1.1091995190
 C          5.7671942300        1.2490870522       -2.1311174989
 C          5.0741761541        1.8026963325       -3.2087206073
 C          3.7015276728        1.7091884729       -3.2658210767
 C          3.0075951845        1.0883675571       -2.2296903365
 C          3.6795258694        0.5208223890       -1.1434700757
 C          0.7678602302        0.8863566849        0.7026960883
 C          1.4815696353        1.9123328347        1.5292934556
 C         -0.6139101900        0.8412904393        0.6544585332
 C         -1.2994783390       -0.0976743681       -0.1118150854
 C         -2.7733724794       -0.0825318820       -0.0830120241
 C         -3.5004989291       -1.2109446172        0.2857448152
 C         -4.8794168619       -1.1768625756        0.3402900181
 C         -5.5641142454       -0.0115160922        0.0062139085
 N         -6.9640939211        0.0211481689        0.0453838232
 C         -7.7337242521        0.9807056238        0.6729211941
 C         -7.3397772008        2.0739612892        1.4313564885
 C         -8.3280398215        2.8721487832        1.9748027671
 C         -9.6787820216        2.5914860296        1.7813543526
 C        -10.0770380563        1.4907467012        1.0494163290
 C         -9.1021312061        0.6736294752        0.4928737209
 C         -9.1508069017       -0.5310040867       -0.2874614819
 C        -10.1905523148       -1.3013000115       -0.7908602634
 C         -9.8829818922       -2.4182668861       -1.5417228153
 C         -8.5588325785       -2.7611625879       -1.8057450960
 C         -7.5073400904       -2.0104492774       -1.3159595988
 C         -7.8095441783       -0.9009307536       -0.5392475651
 C         -4.8444002091        1.1208583819       -0.3653426476
 C         -3.4647378600        1.0848734939       -0.3956116962
 H         -2.2372521367       -1.6717876369       -2.0782579003
 H         -0.6489677459       -2.1916699496       -2.6644038045
 H         -1.3629321886       -2.9640781717       -1.2549335993
 H          1.3806131899       -1.6467655232       -1.4514332425
 H          1.8789737246       -1.2058010823        2.0946423274
 H          3.0647866581       -2.2584374578        3.9768656387
 H          5.5394143431       -2.3478306001        3.9721595963
 H          6.7996012636       -1.3552613072        2.1290454133
 H          7.4866327005       -0.9511513169       -1.8767547627
 H          9.9476133574       -0.9159950905       -1.8377777983
 H          9.8551518991        1.0099735612        1.9863136632
 H          7.3943165756        0.9809342830        1.9387553502
 H          6.8387684813        1.3693735359       -2.0874739820
 H          5.6237406310        2.3080889121       -3.9884943380
 H          3.1559888047        2.1304195413       -4.0968873843
 H          1.9290807379        1.0499943259       -2.2578813589
 H          2.2156131993        2.4431972430        0.9239948381
 H          2.0156142854        1.4373309543        2.3522212204
 H          0.7784816314        2.6314569116        1.9420761554
 H         -1.1865561415        1.5473376937        1.2401602662
 H         -2.9772303559       -2.1147984999        0.5594270596
 H         -5.4341747854       -2.0475037721        0.6568297106
 H         -6.2960414842        2.2898573000        1.6032804039
 H         -8.0466789717        3.7312151938        2.5659875664
 H        -10.4208621785        3.2417493325        2.2201499667
 H        -11.1235481382        1.2632461883        0.9132150357
 H        -11.2167362751       -1.0257684352       -0.5997921221
 H        -10.6765538056       -3.0327159495       -1.9401634056
 H         -8.3491532715       -3.6315792125       -2.4099519130
 H         -6.4852352447       -2.2748027688       -1.5419884936
 H         -5.3731080934        2.0204699777       -0.6430078894
 H         -2.9112459963        1.9649906448       -0.6895016228
