  61
 
 C         -7.6226098908        3.0299484530        0.2254732016
 C         -6.4821760678        3.1575748993       -0.5512515383
 C         -5.5720003240        2.1209142903       -0.6335706423
 C         -5.7897823489        0.9387607202        0.0730643154
 N         -4.8692853341       -0.1188931176       -0.0039197035
 C         -5.3489072175       -1.4363220635       -0.0730912219
 C         -6.4793414978       -1.7324981059       -0.8336905073
 C         -6.9594493201       -3.0270887548       -0.8910309872
 C         -6.3189332887       -4.0439415742       -0.2012920919
 C         -5.1939459559       -3.7547305660        0.5542868486
 C         -4.7115447897       -2.4615981225        0.6248019471
 C         -3.5031544510        0.1371519316       -0.0078136360
 C         -2.9778723886        1.2290073555        0.6903300908
 C         -1.6254276046        1.4886574422        0.6745568870
 C         -0.7409658249        0.6612065338       -0.0202989860
 C          0.6959064050        0.9337505920       -0.0296705928
 C          1.1810960471        2.2633493935       -0.0661196582
 N          2.4395614629        2.6014689000       -0.0769159552
 C          3.3682990017        1.6319331119       -0.0504325157
 N          4.6620709918        2.0273006704       -0.0576862060
 C          5.5409014966        1.0641163909       -0.0286354130
 C          5.1719158128       -0.3398013771        0.0103290317
 N          3.9315061503       -0.7411506572        0.0129768123
 C          3.0020823356        0.2515033996       -0.0189801867
 C          1.6391466648       -0.0755881672       -0.0099048360
 C          6.3942762394       -1.1272887087        0.0394176534
 C          6.6958620299       -2.4664844077        0.0818020661
 C          8.0518835489       -2.8439811327        0.0979048349
 C          9.0799844600       -1.9310144920        0.0721015213
 C          8.8053298148       -0.5448285683        0.0283068496
 C          9.7265812873        0.5273452119       -0.0027717302
 C          9.2804559526        1.8276140165       -0.0430946173
 C          7.9140545386        2.1657308569       -0.0561743863
 C          6.9924395371        1.1476943541       -0.0274585179
 C          7.4535475952       -0.1895075675        0.0140513654
 C         -1.2672325783       -0.4347932207       -0.7070572978
 C         -2.6207068287       -0.6890424052       -0.7108840969
 C         -6.9390016272        0.8144893925        0.8524876009
 C         -7.8475838309        1.8534629358        0.9219939801
 H         -8.3323869857        3.8412059268        0.2856518285
 H         -6.3026728860        4.0681124369       -1.1041642125
 H         -4.6883991042        2.2184763931       -1.2475624577
 H         -6.9754158676       -0.9419877728       -1.3777753467
 H         -7.8352580120       -3.2440269500       -1.4850252169
 H         -6.6945981464       -5.0548676617       -0.2512137408
 H         -4.6925295509       -4.5400467474        1.1010716452
 H         -3.8412864725       -2.2362221649        1.2239840884
 H         -3.6411639877        1.8685614197        1.2533967238
 H         -1.2417149096        2.3241580712        1.2410653286
 H          0.4838947056        3.0908555324       -0.1088188070
 H          1.3603148732       -1.1182652732        0.0354701441
 H          5.9193488176       -3.2156713150        0.1025064338
 H          8.2862221173       -3.8980978702        0.1314026880
 H         10.1059142773       -2.2686393865        0.0853223917
 H         10.7860135629        0.3170994280        0.0060044492
 H         10.0031491797        2.6303277886       -0.0657502015
 H          7.6046698974        3.1990449887       -0.0876552434
 H         -0.6074092947       -1.0738169755       -1.2750659027
 H         -3.0092041699       -1.5277629313       -1.2692484695
 H         -7.1117462502       -0.0992048161        1.4023407601
 H         -8.7327179969        1.7463400362        1.5319224356
