  110
 
 C          6.4038129217        2.8642619087       -4.8613176063
 C          6.8932592771        2.0820794356       -3.6385289731
 C          7.7796374693        0.9296808949       -4.1344861868
 C          7.7216514787        3.0357520046       -2.7642794402
 C          5.7540060604        1.5096053728       -2.8052624551
 C          4.4101380908        1.7087588025       -3.1330227223
 C          3.3720276748        1.1892206893       -2.3796716883
 C          3.6861205708        0.4361987954       -1.2615431335
 C          5.0342251822        0.2412734730       -0.8931631279
 C          6.0541810713        0.7724484555       -1.6666018332
 C          5.0200035969       -0.5211665583        0.3268037358
 C          6.0287147508       -1.0274431518        1.1358182439
 C          5.7035602122       -1.7636945147        2.2639490163
 C          6.7559825032       -2.3408463992        3.2007383193
 C          8.1840609829       -2.0049368640        2.7597789537
 C          6.5450123155       -1.7648509051        4.6090857522
 C          6.6162249844       -3.8700638271        3.2380174035
 C          4.3496677532       -1.9921485981        2.5430475579
 C          3.3268013899       -1.5024110944        1.7551459122
 C          3.6648521742       -0.7430823215        0.6459417081
 N          2.8617052385       -0.1634610398       -0.3226450672
 C          1.4676462367       -0.1738161441       -0.3449193076
 C          0.7753897081       -0.5170814427       -1.5085567709
 C         -0.6026291590       -0.5200409909       -1.5216259422
 C         -1.3346999993       -0.2149352700       -0.3738290407
 N         -2.7272743802       -0.2202337195       -0.4280226067
 C         -3.5083212428       -1.2680297555       -0.8885148880
 C         -3.1412462712       -2.5179856681       -1.3544764906
 C         -4.1422447187       -3.3959964312       -1.7320170332
 C         -5.4991874063       -3.0721694361       -1.6523934900
 C         -6.5970858718       -4.0392179769       -2.0764477605
 C         -6.0496838300       -5.3695042217       -2.6029781204
 C         -7.4953569119       -4.3394066311       -0.8670392925
 C         -7.4292825939       -3.3924271987       -3.1940756287
 C         -5.8527981680       -1.8225854657       -1.1576225224
 C         -4.8712940073       -0.9234855969       -0.7728473693
 C         -4.9123247675        0.4032738800       -0.2170503963
 C         -5.9461832847        1.2673388919        0.1048459779
 C         -5.6696141855        2.5279280289        0.6202578539
 C         -6.8259976203        3.4515090362        0.9809278255
 C         -6.3607254786        4.7983559395        1.5430991870
 C         -7.6969883687        2.7675965248        2.0456017082
 C         -7.6628406305        3.7244777378       -0.2780455624
 C         -4.3327239170        2.9015892691        0.7793137180
 C         -3.2816062560        2.0593386188        0.4625921746
 C         -3.5720175114        0.7945530509       -0.0156630449
 C         -0.6455837338        0.1233296703        0.8040675744
 C         -1.3635153771        0.3319398912        2.0833907973
 O         -2.3295254266       -0.3265322353        2.4191102389
 C         -0.8110970408        1.3733877244        2.9920043047
 C         -1.0044115689        1.2725473819        4.3727496289
 N         -0.5731475034        2.1914141977        5.2165124306
 C          0.0679815808        3.2236213732        4.6950440787
 N          0.3000653937        3.4326042158        3.4112314556
 C         -0.1455216899        2.5229110707        2.5628427832
 C          0.7467483051        0.1572866068        0.7971318793
 H          7.2613127573        3.2403170726       -5.4162221850
 H          5.7974578156        3.7171787749       -4.5645149725
 H          5.8259627924        2.2286399654       -5.5286768741
 H          8.5922819365        1.3176510490       -4.7453709519
 H          8.2120593958        0.3763057437       -3.3054465575
 H          7.1945764128        0.2377958430       -4.7375130924
 H          8.1558853377        2.5181083808       -1.9134033380
 H          8.5309234156        3.4711619209       -3.3469538325
 H          7.0941429091        3.8417070097       -2.3882595769
 H          4.1488623998        2.2910302912       -4.0009496616
 H          2.3476405997        1.3846185704       -2.6593766340
 H          7.0767729409        0.6085944311       -1.3643191696
 H          7.0529373153       -0.8382235095        0.8618834318
 H          8.3436648577       -0.9292052478        2.7371248407
 H          8.8912911864       -2.4343477398        3.4667435151
 H          8.3983155138       -2.4198161934        1.7774042787
 H          5.5672096510       -2.0273623553        5.0038183868
 H          6.6231128963       -0.6794031397        4.5870444745
 H          7.3012063523       -2.1518814238        5.2890586738
 H          7.3763582248       -4.2995563381        3.8874440118
 H          5.6413318746       -4.1714591969        3.6114032466
 H          6.7412413783       -4.2838933656        2.2391391872
 H          4.0786975751       -2.5792086522        3.4074443228
 H          2.2976736203       -1.7235272009        1.9981882095
 H          1.3267948853       -0.7869050770       -2.3957851960
 H         -1.1350235668       -0.7639425329       -2.4282319581
 H         -2.1048515774       -2.8153111254       -1.4141950918
 H         -3.8405166294       -4.3642385117       -2.0955444607
 H         -6.8794909077       -6.0104290204       -2.8947348590
 H         -5.4210460051       -5.2162010782       -3.4773069754
 H         -5.4784361240       -5.8896034281       -1.8372535869
 H         -6.9073155738       -4.7726055080       -0.0600596852
 H         -7.9714389339       -3.4373444243       -0.4926817376
 H         -8.2750188758       -5.0458001191       -1.1449631006
 H         -8.2116828060       -4.0741011018       -3.5215589373
 H         -7.8989308143       -2.4725783004       -2.8568139558
 H         -6.7952752805       -3.1582353599       -4.0471494614
 H         -6.8886287044       -1.5365836006       -1.0604280975
 H         -6.9635075363        0.9445717360       -0.0531950151
 H         -5.7663390784        5.3442423246        0.8137455809
 H         -7.2294495532        5.4058113620        1.7895992999
 H         -5.7774443722        4.6636309955        2.4515723970
 H         -8.1152828836        1.8351776757        1.6768595319
 H         -8.5188140745        3.4199387713        2.3335830895
 H         -7.1037241746        2.5468775442        2.9311764481
 H         -7.0466325870        4.1888980731       -1.0455036106
 H         -8.0779631544        2.8064233645       -0.6843496489
 H         -8.4859116509        4.3957505538       -0.0419385732
 H         -4.0864492426        3.8795879518        1.1591343285
 H         -2.2620013619        2.3954681533        0.5852470191
 H         -1.5173158389        0.4171170391        4.7942928216
 H          0.4333675438        3.9724565065        5.3859064290
 H          0.0277312270        2.7293874959        1.5137176114
 H          1.2811334903        0.4165834671        1.6987679426
