  73
 
 N          9.4793215368        0.9000558185        0.9426123410
 C          9.1550131910       -0.1299563267        0.5178785450
 C          8.8958232882       -1.3876345956       -0.0148694586
 C         10.0117996799       -2.2262798187       -0.1629949592
 C          9.9166572633       -3.4434762556       -0.7873275379
 C          8.6707847233       -3.8583888144       -1.3028611608
 C          7.5679224855       -3.0644015570       -1.1700439736
 C          7.5983610023       -1.8130832774       -0.5037237529
 C          6.4156798952       -1.0537595352       -0.3140299679
 C          6.2850589591       -0.0972718077        0.7385611707
 C          5.1611239102        0.6547308861        0.8999209485
 C          4.0567541497        0.5034016340        0.0319066148
 N          2.9222296473        1.2801186258        0.1792380821
 C          2.9060996168        2.6515195170        0.4047741512
 C          3.9638375149        3.5439792994        0.4885156102
 C          3.6670186075        4.8825825779        0.6903782212
 C          2.3511657139        5.3259984894        0.7888305543
 C          1.2897748242        4.4446734893        0.6672087214
 C          1.5641873849        3.1005199229        0.4664124952
 C          0.7362191427        1.9420090621        0.2610960886
 C         -0.6293549599        1.7513670040        0.2185413367
 C         -1.1394905386        0.4606111310        0.0441073926
 C         -2.5805230059        0.2367061562       -0.0078925433
 C         -3.4184526320        1.1821924371       -0.6297423649
 C         -4.7818027178        1.0137029355       -0.7133797861
 C         -5.3384176264       -0.1243534613       -0.1365434119
 C         -4.5135910296       -1.0966911367        0.4835179346
 C         -3.1447768554       -0.9167488122        0.5428447973
 C         -5.3922280218       -2.1449158759        0.9328798226
 C         -5.1883254567       -3.3387186348        1.6097985178
 C         -6.2862558640       -4.1253952417        1.9075635298
 C         -7.5720980785       -3.7271291680        1.5509442343
 C         -7.7994730454       -2.5418742946        0.8747984819
 C         -6.6990914052       -1.7603177901        0.5537277304
 N         -6.6463420245       -0.5372820860       -0.0901492090
 C         -7.7471891739        0.1614767621       -0.6146968321
 C         -8.6290696960       -0.4774437303       -1.4815758618
 C         -9.7102428700        0.2145116425       -1.9963845538
 C         -9.9151761201        1.5424987392       -1.6581685649
 C         -9.0355204758        2.1794171668       -0.7977928223
 C         -7.9553358490        1.4942583120       -0.2717845652
 C         -0.2440942371       -0.6230875914       -0.0634738463
 C          1.1214938622       -0.4512433585       -0.0414744659
 C          1.6228324200        0.8414042813        0.0945073414
 C          4.1461884336       -0.4620875233       -0.9966430991
 C          5.2746740343       -1.2055531796       -1.1627978577
 H         10.9629259414       -1.8801974499        0.2216381040
 H         10.7848253375       -4.0766731022       -0.8903744719
 H          8.5937091398       -4.8176643042       -1.7937399432
 H          6.6203856416       -3.4284336536       -1.5380307460
 H          7.0832410921       -0.0048625375        1.4579110262
 H          5.0796799337        1.3289755736        1.7398208629
 H          4.9868694914        3.2168823581        0.3853822737
 H          4.4752711961        5.5943890420        0.7644666052
 H          2.1586288633        6.3762673616        0.9494446375
 H          0.2705164057        4.7951049749        0.7210481690
 H         -1.2967856805        2.5870400052        0.3606793211
 H         -2.9708248907        2.0494035398       -1.0907796239
 H         -5.3980420978        1.7375349182       -1.2243736714
 H         -2.5242243283       -1.6471651913        1.0379510200
 H         -4.1943081899       -3.6421197026        1.9016057260
 H         -6.1491775318       -5.0589020800        2.4329439966
 H         -8.4110407662       -4.3556559612        1.8108273609
 H         -8.8009060843       -2.2345704680        0.6150828655
 H         -8.4533359484       -1.5060368982       -1.7594010707
 H        -10.3907696281       -0.2838914301       -2.6706122334
 H        -10.7584830027        2.0800351022       -2.0648314762
 H         -9.1945292238        3.2129895598       -0.5283723519
 H         -7.2790934869        1.9803186105        0.4155529717
 H         -0.6418371264       -1.6176306224       -0.1925432408
 H          1.7829760811       -1.3003875150       -0.1140689424
 H          3.3305757411       -0.5517881725       -1.6993174616
 H          5.3319628234       -1.8799885328       -2.0027164617
