  94
 
 C          7.7162876494       -1.0168555560        2.0500311360
 C          7.0793550489        0.0753869883        1.1701055872
 C          7.9460439939        1.3485270705        1.1902847414
 C          6.9982421041       -0.4412452518       -0.2543778217
 C          8.1658167440       -0.7950439976       -0.9182140254
 C          8.1562685571       -1.3042028058       -2.2036037872
 C          6.9461706448       -1.4853065650       -2.8488204561
 C          5.7711668812       -1.1407851039       -2.2134954958
 C          5.7806942098       -0.6000266745       -0.9242386248
 N          4.5812764750       -0.2549759169       -0.3123177052
 C          3.3674186407       -0.4422425551       -1.0187605636
 C          2.5221178276       -1.4973282799       -0.6781446202
 C          1.3392806773       -1.6843464022       -1.3693068001
 C          1.0118062148       -0.8177265871       -2.3962364637
 S         -0.5422775353       -1.0614446399       -3.2569025420
 O         -0.6895765610       -2.4647444323       -3.5742463165
 O         -0.6220233585       -0.1263031007       -4.3571467740
 C         -1.7866714405       -0.6200157087       -2.0379091876
 C         -2.4705400649       -1.6196450658       -1.3812677571
 C         -3.4301003712       -1.2708311166       -0.4282834074
 N         -4.1680213910       -2.2630775893        0.2159771017
 C         -4.4097022162       -2.3513063095        1.5773489376
 C         -3.9311376757       -1.5644655824        2.6139136535
 C         -4.3037282775       -1.8933529751        3.9039578541
 C         -5.1251471386       -2.9873108065        4.1652547865
 C         -5.5797971591       -3.7936105222        3.1401228790
 C         -5.2180487568       -3.4805143968        1.8360849238
 C         -5.4793367530       -4.0981606750        0.5643926574
 C         -6.2172894257       -5.2107653983        0.1813359078
 C         -6.2857277367       -5.5288182675       -1.1607177977
 C         -5.6430068438       -4.7437156322       -2.1151063623
 C         -4.9034911636       -3.6312878002       -1.7574613881
 C         -4.8093845294       -3.3224505678       -0.4082440528
 C         -3.6643002068        0.0752081419       -0.1548473528
 C         -2.9555422998        1.0729429222       -0.8220943870
 N         -3.2269159426        2.4182265761       -0.5727617472
 C         -3.3315854455        3.0173256803        0.6716890181
 C         -3.1028762412        2.4853894070        1.9315944066
 C         -3.2455447199        3.3203416190        3.0241819874
 C         -3.5952906688        4.6600066296        2.8727279103
 C         -3.7951122624        5.2035732948        1.6188022889
 C         -3.6584223703        4.3818283552        0.5072612707
 C         -3.7639524280        4.6106717551       -0.9082067613
 C         -4.0794891915        5.7283215691       -1.6701988205
 C         -4.1205237572        5.6013331016       -3.0446547398
 C         -3.8642185718        4.3769434867       -3.6576526555
 C         -3.5483804850        3.2507179822       -2.9199094824
 C         -3.4831093742        3.3783613232       -1.5399991256
 C         -1.9961840116        0.7164995571       -1.7714577463
 C          1.8365832700        0.2348584050       -2.7436602500
 C          3.0213282906        0.4236265156       -2.0539178829
 C          4.5380772684        0.2522345580        0.9810173763
 C          3.3123969890        0.6362595433        1.5332367691
 C          3.2363907474        1.1368480628        2.8164983535
 C          4.3873473574        1.2706129657        3.5720822997
 C          5.6036369243        0.9166017846        3.0180265744
 C          5.7095483441        0.4136964720        1.7276447048
 H          7.7985085680       -0.6843889818        3.0810771561
 H          8.7107282378       -1.2704750287        1.6936810826
 H          7.1035436633       -1.9165496731        2.0265627213
 H          8.0463462889        1.7338560429        2.2010024993
 H          8.9411564165        1.1464728490        0.8042898514
 H          7.4879107517        2.1193361753        0.5727837174
 H          9.1157604162       -0.6752133891       -0.4200395553
 H          9.0834415636       -1.5662036976       -2.6907074116
 H          6.9116745407       -1.8984682717       -3.8462605529
 H          4.8322389690       -1.2991312366       -2.7213052520
 H          2.8005718563       -2.1623254421        0.1252606821
 H          0.6772131620       -2.5029148252       -1.1364420509
 H         -2.2582762857       -2.6489026233       -1.6202464034
 H         -3.2745108771       -0.7300542451        2.4259124548
 H         -3.9466918141       -1.2909391375        4.7261902413
 H         -5.3979246011       -3.2116761531        5.1857682891
 H         -6.1989968780       -4.6540665359        3.3437993808
 H         -6.7287130013       -5.8088390836        0.9202495816
 H         -6.8511141225       -6.3916127950       -1.4804396312
 H         -5.7251614636       -5.0064887065       -3.1595838368
 H         -4.4237809406       -3.0253307307       -2.5112126004
 H         -4.4365206548        0.3500969617        0.5474709528
 H         -2.8065909530        1.4563051525        2.0589739667
 H         -3.0773252465        2.9259702268        4.0155123789
 H         -3.6996605097        5.2814872723        3.7497532870
 H         -4.0466334981        6.2465363216        1.4996644671
 H         -4.2939716944        6.6727345930       -1.1933490484
 H         -4.3624896040        6.4577224344       -3.6564843910
 H         -3.9167399876        4.3024515512       -4.7339559311
 H         -3.3673105423        2.3057493822       -3.4097055815
 H         -1.4284271525        1.4621413744       -2.3030357936
 H          1.5412456580        0.8840479875       -3.5530073422
 H          3.6842301412        1.2353963576       -2.3124634893
 H          2.4106998267        0.5474902285        0.9471135685
 H          2.2772571399        1.4246209372        3.2212200660
 H          4.3420473341        1.6567635552        4.5792716576
 H          6.4954698082        1.0399596691        3.6132716435
