124

C      6.749274    2.530984   -3.536443
C      6.878092    0.997740   -3.398074
C      8.295534    0.709934   -2.854205
C      6.782751    0.351700   -4.796641
C      5.746670    0.458783   -2.504383
C      4.406287    0.688356   -2.851901
C      3.338310    0.235733   -2.067686
C      3.623230   -0.462345   -0.882538
C      4.936208   -0.754498   -0.519677
C      5.995148   -0.279845   -1.332100
C      4.892515   -1.537724    0.673322
C      5.888781   -2.126216    1.486897
C      5.559455   -2.853062    2.651857
C      6.677303   -3.471081    3.511402
C      6.164101   -4.219865    4.762667
C      7.476709   -4.486922    2.666913
C      7.629666   -2.360249    4.005717
C      4.202837   -2.970985    2.977892
C      3.192038   -2.403836    2.188368
C      3.554896   -1.702107    1.025586
N      2.788525   -1.018675    0.084007
C      1.365882   -0.980673    0.065622
C      0.680385   -2.203225    0.064078
C     -0.703058   -2.201540    0.010704
C     -1.384389   -0.977320   -0.026767
N     -2.807161   -1.011316   -0.044003
C     -3.575976   -1.722945   -0.962721
C     -3.215682   -2.459703   -2.103429
C     -4.230982   -3.051043   -2.866264
C     -5.590263   -2.926332   -2.538140
C     -6.662299   -3.598319   -3.415492
C     -6.396854   -5.117794   -3.495246
C     -6.613629   -2.998211   -4.837060
C     -8.104668   -3.417783   -2.889857
C     -5.915804   -2.160455   -1.402992
C     -4.912934   -1.547604   -0.612972
C     -4.953556   -0.726843    0.554612
C     -6.011267   -0.228261    1.354159
C     -5.761580    0.545544    2.502997
C     -6.892745    1.108084    3.382302
C     -6.762288    2.644405    3.482737
C     -6.797590    0.495919    4.796032
C     -8.310823    0.808638    2.845474
C     -4.420980    0.786481    2.840885
C     -3.354159    0.310730    2.068464
C     -3.640037   -0.423772    0.905800
C     -0.712165    0.256071   -0.032573
N     -1.383312    1.425524   -0.135994
C     -0.695486    2.599900   -0.117852
C     -1.545078    3.790025   -0.316965
C     -1.218180    4.792920   -1.247433
C     -2.038155    5.911573   -1.424489
C     -3.210058    6.043084   -0.684317
C     -3.567102    5.053575    0.226568
C     -2.744512    3.938007    0.403482
C      0.689221    2.600454    0.049723
C      1.541509    3.794403    0.210965
C      1.214159    4.828724    1.106482
C      2.034299    5.952604    1.246130
C      3.206842    6.058181    0.502635
C      3.564900    5.037408   -0.372901
C      2.742287    3.916410   -0.512049
N      1.373252    1.424969    0.103238
C      0.698091    0.254876    0.034846
H      5.818503    2.826832   -4.031903
H      6.769225    3.018220   -2.554614
H      7.571962    2.945185   -4.131366
H      8.486608   -0.366418   -2.773243
H      8.447419    1.159358   -1.865962
H      9.064612    1.121870   -3.519051
H      7.592244    0.699407   -5.448973
H      6.853327   -0.740462   -4.731397
H      5.839412    0.590242   -5.300062
H      4.160887    1.239409   -3.758216
H      2.317523    0.442255   -2.374157
H      7.006139   -0.512112   -1.014993
H      6.927395   -1.997676    1.194327
H      5.505388   -5.053191    4.492266
H      6.995548   -4.641153    5.340278
H      5.611952   -3.551644    5.433928
H      6.822329   -5.273921    2.273283
H      7.974158   -4.015501    1.812195
H      8.257426   -4.970411    3.265683
H      7.085786   -1.602364    4.581639
H      8.414873   -2.771298    4.651219
H      8.132608   -1.846825    3.178955
H      3.883776   -3.503836    3.870870
H      2.154553   -2.498095    2.495084
H      1.215725   -3.150988    0.076801
H     -1.241643   -3.147500    0.025958
H     -2.180013   -2.563511   -2.411963
H     -3.929987   -3.614594   -3.747991
H     -7.179778   -5.626983   -4.069048
H     -5.444303   -5.347208   -3.984787
H     -6.370059   -5.566407   -2.495597
H     -5.649996   -3.174282   -5.327934
H     -6.776626   -1.914242   -4.813404
H     -7.386224   -3.438044   -5.478518
H     -8.393320   -2.360704   -2.855996
H     -8.222059   -3.836922   -1.883804
H     -8.828145   -3.926518   -3.538393
H     -6.946713   -2.009645   -1.100905
H     -7.022752   -0.472321    1.047558
H     -5.831511    2.951672    3.972428
H     -7.585165    3.073646    4.066162
H     -6.779341    3.108028    2.489336
H     -5.855423    0.749955    5.294377
H     -6.863634   -0.598158    4.756951
H     -7.609563    0.856102    5.438194
H     -8.505023   -0.269019    2.795509
H     -8.459847    1.229975    1.844404
H     -9.079503    1.242737    3.496264
H     -4.174675    1.364009    3.729890
H     -2.333047    0.526010    2.366892
H     -0.319139    4.710149   -1.855632
H     -1.762914    6.675310   -2.147440
H     -3.850515    6.909308   -0.826623
H     -4.489566    5.139885    0.794683
H     -3.051332    3.167692    1.108628
H      0.314125    4.767102    1.715943
H      1.757999    6.741048    1.941624
H      3.846714    6.929431    0.614636
H      4.487716    5.104133   -0.943760
H      3.049499    3.121793   -1.189636
