88

O      0.268516    0.645282    0.970885
C     -0.422280    0.543027   -0.037310
C     -1.858668    0.150907    0.061559
C     -2.736356    0.250546   -1.025363
C     -4.082236   -0.092719   -0.871788
C     -4.567642   -0.537814    0.365662
N     -5.949247   -0.857831    0.518137
C     -6.893975    0.129129    0.952222
C     -6.523290    1.436473    1.314633
C     -7.478299    2.366676    1.735777
C     -8.822329    2.009808    1.799296
C     -9.211775    0.722457    1.440463
C     -8.255411   -0.207801    1.019407
O     -8.741033   -1.449022    0.674698
C     -7.833684   -2.403002    0.272570
C     -8.372570   -3.651373   -0.057199
C     -7.535919   -4.685848   -0.465669
C     -6.163180   -4.470263   -0.542491
C     -5.626239   -3.218466   -0.219489
C     -6.453241   -2.159660    0.187982
C     -3.686592   -0.644234    1.448233
C     -2.341109   -0.298294    1.298108
C      0.193807    0.798398   -1.358185
C      0.409331   -0.317458   -2.184298
C      0.980613   -0.151793   -3.443612
C      1.333684    1.121935   -3.878390
C      1.129137    2.230736   -3.050245
C      0.572500    2.096576   -1.761985
C      0.409801    3.297170   -0.911056
C     -0.878713    3.702906   -0.511247
C     -1.079074    4.852049    0.260575
C      0.002859    5.639110    0.636103
C      1.287788    5.277305    0.241975
C      1.493140    4.111272   -0.511052
C      2.890217    3.837760   -0.918992
O      3.463568    4.674216   -1.615031
C      3.590369    2.590284   -0.518578
C      3.197077    1.844603    0.596434
C      3.859465    0.654983    0.910014
C      4.931141    0.208620    0.124771
N      5.592083   -1.017066    0.434672
C      5.074530   -2.273503   -0.021113
C      3.898072   -2.385026   -0.784577
C      3.427061   -3.633103   -1.206426
C      4.125236   -4.791995   -0.877146
C      5.296325   -4.702745   -0.127658
C      5.765129   -3.454864    0.295370
O      6.930616   -3.472317    1.027525
C      7.422309   -2.266542    1.475086
C      8.598966   -2.333389    2.227917
C      9.169939   -1.169183    2.734620
C      8.564490    0.060382    2.488312
C      7.388704    0.126176    1.733567
C      6.797359   -1.036903    1.209657
C      5.342038    0.976014   -0.973873
C      4.677430    2.162648   -1.291491
H     -2.405352    0.609701   -1.996133
H     -4.763470   -0.002717   -1.714147
H     -5.484868    1.752886    1.278738
H     -7.170009    3.372579    2.013566
H     -9.566368    2.734365    2.126442
H    -10.260235    0.439975    1.484945
H     -9.444466   -3.814459    0.009241
H     -7.953460   -5.657877   -0.720998
H     -5.502988   -5.282407   -0.846253
H     -4.549612   -3.091355   -0.287366
H     -4.052163   -0.987663    2.413590
H     -1.672547   -0.373065    2.154324
H      0.142056   -1.315131   -1.843789
H      1.153797   -1.012669   -4.084633
H      1.780900    1.257409   -4.861708
H      1.423576    3.214356   -3.419237
H     -1.754280    3.133411   -0.814565
H     -2.086135    5.137096    0.556223
H     -0.154639    6.539412    1.223476
H      2.132615    5.904968    0.513386
H      2.369191    2.158387    1.226666
H      3.530967    0.068065    1.765512
H      3.328678   -1.501715   -1.061394
H      2.513088   -3.697697   -1.791457
H      3.759457   -5.762995   -1.202021
H      5.846988   -5.603737    0.130420
H      9.064894   -3.295199    2.420708
H     10.082394   -1.221168    3.322465
H      9.003518    0.972428    2.884226
H      6.941880    1.102387    1.567004
H      6.175501    0.641892   -1.586840
H      5.000654    2.745303   -2.152355
