  63
 
 C         -2.0653205283        5.5366788863        0.0494738066
 C         -0.8997156547        4.8166987202        0.2538706717
 C         -0.9255804200        3.4337862433        0.2298669134
 C         -2.1237811243        2.7711384148        0.0006294765
 N         -2.1187823853        1.3493385859       -0.0137460334
 C         -2.1483863583        0.6669133797       -1.2162025205
 C         -2.4657701187        1.3176830886       -2.4105467488
 C         -2.5443466340        0.6102427246       -3.5922656116
 C         -2.3085930170       -0.7554805430       -3.6103851110
 C         -1.9558501436       -1.4019280011       -2.4402545735
 C         -1.8689443739       -0.7068115850       -1.2442294127
 C         -1.3317391102       -1.3550720126        0.0018705488
 C         -1.4038744437       -2.8605868142        0.0103735191
 C         -2.5207449697       -3.6642710933        0.0110582063
 C         -2.3477624572       -5.0444932186        0.0206962215
 C         -1.0760854779       -5.6005723282        0.0299727552
 C          0.0545219608       -4.8021098604        0.0300617115
 C         -0.1141786484       -3.4227713678        0.0202092179
 C          0.8548016655       -2.3623871329        0.0165096380
 N          2.1734105604       -2.3730716618        0.0213614686
 C          2.8729322864       -1.2353307642        0.0099288113
 C          4.2518959160       -1.2121289520        0.0134825069
 C          4.9801226210       -0.0081940615       -0.0036112763
 C          6.3876785489        0.0113120487        0.0000725280
 C          7.0743058142        1.1976815180       -0.0197145920
 C          6.3825131333        2.4139772187       -0.0443095280
 C          5.0110498070        2.4283995462       -0.0479709847
 C          4.2778997949        1.2290197017       -0.0273874411
 C          2.8680689523        1.2140886996       -0.0291992081
 C          2.1529999930        0.0422867151       -0.0090567052
 N          0.8054659778        0.0127583404       -0.0070388609
 C          0.1770026944       -1.1223718416        0.0033620339
 C         -1.8748264542       -0.6972609372        1.2395976895
 C         -1.9751091071       -1.3785993132        2.4425224799
 C         -2.3572207608       -0.7210838733        3.5972496728
 C         -2.6226810262        0.6389617232        3.5557001446
 C         -2.5305094648        1.3321534060        2.3667412412
 C         -2.1626551502        0.6727834889        1.1914842328
 C         -3.2953949232        3.4906164111       -0.1978649250
 C         -3.2607187037        4.8739046496       -0.1749555413
 H         -2.0434028155        6.6159310265        0.0669505856
 H          0.0312761109        5.3339242364        0.4310936194
 H         -0.0302763165        2.8509791582        0.3874759306
 H         -2.6452904282        2.3816156618       -2.4098453368
 H         -2.7919810065        1.1293751043       -4.5060400693
 H         -2.3765666696       -1.3089813586       -4.5340196778
 H         -1.7322826364       -2.4583852879       -2.4526854329
 H         -3.5104659778       -3.2311366546        0.0039325690
 H         -3.2135870850       -5.6895818675        0.0208843478
 H         -0.9676736991       -6.6753798535        0.0372033653
 H          1.0450856522       -5.2292007702        0.0373152330
 H          4.7797127162       -2.1537369397        0.0286419213
 H          6.9190093035       -0.9295606318        0.0185703895
 H          8.1546771933        1.1998985945       -0.0167590718
 H          6.9359995407        3.3416344522       -0.0604157203
 H          4.4732255612        3.3659237741       -0.0671705603
 H          2.3304830469        2.1506807842       -0.0511063706
 H         -1.7418170840       -2.4325945985        2.4723364969
 H         -2.4334061811       -1.2632686402        4.5269702286
 H         -2.9072678558        1.1630708253        4.4557296678
 H         -2.7451587803        2.3896999115        2.3404432170
 H         -4.2239084918        2.9639242559       -0.3642581071
 H         -4.1702761301        5.4349629321       -0.3298448442
