57

C      5.229080    3.586230    0.103328
C      5.682396    2.495737   -0.634434
C      4.932628    1.317095   -0.673665
C      3.716075    1.207898    0.023347
N      2.947925   -0.012771   -0.010521
C      3.611559   -1.292728    0.049375
C      3.176433   -2.371311   -0.741290
C      3.814595   -3.612937   -0.677814
C      4.897626   -3.797764    0.178054
C      5.344976   -2.742603    0.969254
C      4.707882   -1.500583    0.905012
C      1.509766    0.047532   -0.100594
C      0.707290   -0.794918    0.711016
C     -0.707607   -0.794939    0.710985
C     -1.509986    0.047597   -0.100575
N     -2.948112   -0.012614   -0.010534
C     -3.715979    1.208185    0.025112
C     -4.932786    1.318548   -0.671268
C     -5.682260    2.497326   -0.630279
C     -5.228373    3.586826    0.108599
C     -4.025468    3.499871    0.804917
C     -3.275405    2.321125    0.763369
C     -3.611809   -1.292617    0.047501
C     -3.176469   -2.370192   -0.744433
C     -3.814666   -3.611896   -0.682770
C     -4.897980   -3.797804    0.172500
C     -5.345530   -2.743667    0.964955
C     -4.708358   -1.501595    0.902567
C     -0.759955    0.915355   -0.957467
N     -1.270416    1.781516   -1.852579
S     -0.000149    2.530515   -2.594425
N      1.270127    1.781351   -1.852760
C      0.759721    0.915289   -0.957522
C      3.276089    2.321800    0.760482
C      4.026460    3.500404    0.800284
H      5.810085    4.504166    0.130744
H      6.615338    2.561601   -1.187664
H      5.293977    0.486060   -1.274600
H      2.348052   -2.244283   -1.433835
H      3.468382   -4.432367   -1.302307
H      5.394777   -4.763137    0.226548
H      6.188986   -2.883601    1.639394
H      5.063971   -0.695202    1.543381
H      1.203491   -1.475589    1.405740
H     -1.203895   -1.475658    1.405609
H     -5.294585    0.488354   -1.273094
H     -6.615428    2.564076   -1.183028
H     -5.809146    4.504868    0.137381
H     -3.667568    4.348987    1.380828
H     -2.347547    2.274607    1.326479
H     -2.347895   -2.242293   -1.436589
H     -3.468252   -4.430514   -1.308210
H     -5.395190   -4.763219    0.219565
H     -6.189748   -2.885511    1.634649
H     -5.064582   -0.697073    1.541947
H      2.348445    2.276165    1.324014
H      3.669011    4.350300    1.375322
