  53
 
 O          3.8916608967        0.0564839711        2.2573325450
 C          3.1274064379        0.0260192692        1.3174727583
 C          1.6615542405        0.0083490188        1.4762026550
 C          1.1144984237        0.0024026331        2.7420528441
 C         -0.2724340835       -0.0141727842        2.9124855240
 C         -1.1075350806       -0.0148532154        1.8256406521
 C         -0.5831520070       -0.0012398689        0.5167389478
 C         -1.4039475674        0.0005294582       -0.6433150878
 N         -2.8199964089        0.0060530979       -0.5158788001
 C         -3.4426442438        1.2263550590       -0.2530751726
 C         -2.6723394876        2.3712390719       -0.0451717456
 C         -3.2572732847        3.5954219670        0.2263137435
 C         -4.6319803598        3.7105973307        0.3050068833
 C         -5.4129384360        2.5897060200        0.0861094235
 C         -4.8316784812        1.3658549002       -0.2022642807
 S         -5.9407967919        0.0326359695       -0.5614489340
 C         -4.8526290278       -1.3612210810       -0.4720647829
 C         -5.4496085444       -2.6102669513       -0.4240627574
 C         -4.6821230069       -3.7611630308       -0.3989662015
 C         -3.3048096478       -3.6495645505       -0.4095045523
 C         -2.7048689723       -2.4031620412       -0.4400425072
 C         -3.4621226013       -1.2316124085       -0.4784713578
 C         -0.8433069922       -0.0088143499       -1.8987936394
 C          0.5436527036       -0.0103964952       -2.0582806766
 C          1.3727711660       -0.0007880721       -0.9567163880
 C          0.8236328136        0.0027756614        0.3423952877
 C          2.8346564994       -0.0026556817       -1.1473959859
 O          3.3561307530       -0.0276268366       -2.2410178803
 N          3.5996317228        0.0155759867        0.0112043168
 C          5.0251043510        0.0231581244       -0.1584540900
 C          5.7719204154       -1.0603884444        0.2747191835
 C          7.1458004489       -1.0464198575        0.1136076457
 C          7.7656159120        0.0376182688       -0.4842128588
 C          7.0116684934        1.1143720585       -0.9188058569
 C          5.6382244533        1.1138434813       -0.7533780002
 H          1.7788712982        0.0090284111        3.5929622678
 H         -0.6842575090       -0.0253222081        3.9099834568
 H         -2.1785826424       -0.0263204514        1.9625200561
 H         -1.5971767567        2.3080804508       -0.1063232046
 H         -2.6262819213        4.4579950641        0.3762447252
 H         -5.0961980399        4.6593794129        0.5221590760
 H         -6.4899144274        2.6515848066        0.1209289184
 H         -6.5275390378       -2.6649011955       -0.4198162747
 H         -5.1584164608       -4.7282971501       -0.3728102368
 H         -2.6840658603       -4.5321532367       -0.3903949091
 H         -1.6277159417       -2.3394989853       -0.4406328916
 H         -1.4876375281       -0.0137022597       -2.7649786083
 H          0.9864002019       -0.0150781334       -3.0426382382
 H          5.2796877336       -1.9016096183        0.7386012711
 H          7.7319072921       -1.8870474540        0.4534187492
 H          8.8378678859        0.0432825357       -0.6116313263
 H          7.4930066107        1.9606117502       -1.3855448086
 H          5.0423013972        1.9493215823       -1.0880098771
