60

C      2.780601    2.589630   -0.987639
C      3.718220    1.595258   -0.357281
C      5.033668    2.032816   -0.090919
C      5.969965    1.225211    0.539496
C      5.620732   -0.058504    0.944974
C      4.326357   -0.552675    0.679889
C      3.686919   -1.784772    1.012406
C      4.105295   -2.933112    1.719867
C      3.227815   -4.008206    1.883548
C      1.948054   -3.957727    1.346021
C      1.512788   -2.834897    0.636637
C      2.395650   -1.744603    0.492303
N      2.264895   -0.535986   -0.185061
C      1.124586   -0.201746   -0.961680
C     -0.113767   -0.108163   -0.309663
C     -1.261349    0.208799   -1.050116
N     -2.504280    0.237076   -0.364971
C     -3.504262   -0.710031   -0.566874
C     -3.601481   -1.788853   -1.470107
C     -4.739894   -2.598499   -1.424731
C     -5.746875   -2.360034   -0.498546
C     -5.632113   -1.307636    0.413150
C     -4.492744   -0.473760    0.385613
C     -4.072911    0.634820    1.180380
C     -4.663119    1.282060    2.286306
C     -4.027708    2.370939    2.874080
C     -2.829037    2.839338    2.354191
C     -2.210949    2.243797    1.233834
C     -0.943283    2.875550    0.725988
C     -2.842573    1.091659    0.687054
C     -1.184698    0.434588   -2.432890
C     -2.318841    0.833045   -3.220064
N     -3.208699    1.162232   -3.886968
C      0.060946    0.315969   -3.071602
C      1.220692   -0.014361   -2.349815
C      2.442436   -0.207276   -3.082356
N      3.402283   -0.357164   -3.715957
C      3.406006    0.250684   -0.009209
H      1.746960    2.413531   -0.685486
H      2.859921    2.550431   -2.077318
H      3.023306    3.608290   -0.664359
H      5.331833    3.042261   -0.373423
H      6.970815    1.601447    0.734319
H      6.346571   -0.676941    1.465636
H      5.107006   -2.984106    2.137469
H      3.553319   -4.890341    2.429380
H      1.278132   -4.805677    1.471387
H      0.516020   -2.826368    0.206395
H     -0.185188   -0.280554    0.765216
H     -2.821657   -2.004835   -2.193364
H     -4.837321   -3.426536   -2.123556
H     -6.626857   -2.998097   -0.476572
H     -6.418702   -1.136436    1.142751
H     -5.612116    0.931509    2.682680
H     -4.479798    2.864208    3.730639
H     -2.368562    3.707794    2.824715
H     -0.073303    2.381189    1.167048
H     -0.887387    2.830502   -0.364447
H     -0.900392    3.937800    0.991536
H      0.128076    0.475463   -4.149936
