  55
 
 C          6.8078701129       -1.1553342931       -1.8057228658
 C          6.0966963101       -0.3634280701       -2.6951445459
 C          4.7915112163       -0.0224928755       -2.3877248536
 C          4.2496297844       -0.4800272803       -1.1879093390
 C          2.8695786807       -0.1582494000       -0.8112863749
 N          1.9492843013       -0.1836221443       -1.7450342421
 C          0.6629691470       -0.0373510208       -1.3745922687
 C         -0.3607242937       -0.0339729327       -2.3444439809
 C         -1.6675553253        0.0124434943       -1.9540721883
 C         -2.0173477599        0.0538830492       -0.5834503229
 N         -3.3791123285        0.0586512267       -0.2304171136
 C         -4.2151968112        1.0861474296       -0.6819055401
 C         -3.7197185321        2.2088482755       -1.3348735720
 C         -4.5726787687        3.2113945454       -1.7709083754
 C         -5.9321383670        3.1175475619       -1.5477300733
 C         -6.4383593653        2.0226158623       -0.8632108076
 C         -5.5909010892        1.0202669052       -0.4266514810
 O         -6.1602709552       -0.0163127784        0.2721878367
 C         -5.3215768232       -0.9954174154        0.7485186012
 C         -5.9110683080       -2.0216990345        1.4649144010
 C         -5.1429197157       -3.0694849188        1.9493538132
 C         -3.7856820014       -3.0880555112        1.6970263848
 C         -3.1900531264       -2.0595557769        0.9826299620
 C         -3.9399346448       -0.9881354960        0.5125722333
 C         -1.0361884906        0.0806505411        0.3817442588
 C          0.3160807603        0.0521733396        0.0029618030
 N          1.2817193867        0.1749175244        0.9396038791
 C          2.5306451995        0.1236795151        0.5487327724
 C          3.5787851216        0.4197902300        1.5319660900
 C          3.4964482663       -0.0624022151        2.8366904202
 C          4.5131922722        0.2512495778        3.7213434088
 C          5.5634940524        1.0418728105        3.2793314500
 C          5.5390035732        1.4891825986        1.9663735348
 N          4.5791787940        1.1908353127        1.1102106775
 N          4.9269088695       -1.2518359729       -0.3396307345
 C          6.1692403244       -1.5753584230       -0.6480399474
 H          7.8274559211       -1.4451354605       -2.0047793447
 H          6.5511899267       -0.0202819630       -3.6130323339
 H          4.1915270658        0.5876086450       -3.0437997818
 H         -0.0814380806       -0.0927778800       -3.3846810589
 H         -2.4591724364       -0.0064500489       -2.6883097268
 H         -2.6576214025        2.3040832856       -1.4982304441
 H         -4.1605138359        4.0681962759       -2.2811283331
 H         -6.6006151127        3.8925285591       -1.8878596938
 H         -7.4919094650        1.9274758063       -0.6526875607
 H         -6.9770104060       -1.9831985465        1.6251391940
 H         -5.6107283746       -3.8645819413        2.5079902850
 H         -3.1747183469       -3.9044519090        2.0501337996
 H         -2.1316637642       -2.0994105769        0.7797089456
 H         -1.2794519167        0.1398152807        1.4313709925
 H          2.6544487889       -0.6698736844        3.1276059733
 H          4.4864895013       -0.1119945931        4.7382721332
 H          6.3768850095        1.3105880307        3.9345239542
 H          6.3247255119        2.1215620006        1.5723687335
 H          6.6713079498       -2.2071145211        0.0739803672
