  90
 
 C          9.4393921961       -2.1613777108       -1.0031866780
 C          8.8378795436       -1.3403680980        0.1531741116
 C          9.7998677186       -1.3308425610        1.3561586629
 C          8.6339345693        0.0856535690       -0.3233452326
 C          9.7268465103        0.8213119222       -0.7622629955
 C          9.6017955558        2.1145324922       -1.2357568686
 C          8.3469285324        2.6938361863       -1.2921011369
 C          7.2443977532        1.9862160425       -0.8607826486
 C          7.3717003313        0.6883606277       -0.3557680495
 N          6.2448873948        0.0074081731        0.0826332818
 C          4.9889689893        0.6680741630        0.0666984488
 C          4.7033244845        1.6476672307        1.0124062526
 C          3.4805102908        2.2889840858        0.9985534814
 C          2.5151074221        1.9477546776        0.0531777349
 C          1.2154942749        2.6314506675        0.0497727700
 C          1.1384201459        4.0238769710        0.0738452559
 N          0.0044597404        4.6976464934        0.0367504356
 C         -1.1311227698        4.0274099505       -0.0131800303
 C         -1.2113819090        2.6349832626       -0.0156458888
 C         -2.5124120438        1.9541999803       -0.0310477789
 C         -3.4766232006        2.3120266996       -0.9714392134
 C         -4.7006508212        1.6733214746       -0.9958183565
 C         -4.9887954913        0.6797695149       -0.0654848127
 N         -6.2460555721        0.0223470206       -0.0908440084
 C         -7.3727835625        0.7012541876        0.3513837413
 C         -7.2459492192        1.9971725226        0.8614774188
 C         -8.3486144192        2.7028506986        1.2956229069
 C         -9.6032893097        2.1233216246        1.2376636837
 C         -9.7277967069        0.8315386110        0.7601784693
 C         -8.6347586587        0.0979800474        0.3180325726
 C         -8.8383470084       -1.3271873875       -0.1611574272
 C         -9.8057733702       -1.3167436329       -1.3597495027
 C         -9.4329877745       -2.1518937469        0.9961485428
 C         -7.5342590906       -1.9677437011       -0.5989116572
 C         -7.5416763524       -3.2735885326       -1.0712544752
 C         -6.3920816512       -3.9042074014       -1.5102573152
 C         -5.1950182099       -3.2113015346       -1.4954175414
 C         -5.1587149111       -1.9132559428       -1.0303828467
 C         -6.3152065571       -1.2821183338       -0.5616333399
 C         -4.0377090660        0.3348483404        0.8890994133
 C         -2.8076139439        0.9623701671        0.9015700707
 C          0.0012030471        1.9264329666        0.0104263609
 C         -0.0007571717        0.5108632801       -0.0026618326
 N         -0.0022084966       -0.6367149772       -0.0131957703
 C          2.8081716476        0.9702943965       -0.8951774232
 C          4.0370588105        0.3401487744       -0.8929377676
 C          6.3132481211       -1.2998480405        0.5454500368
 C          5.1552838962       -1.9354892506        1.0043530194
 C          5.1913390636       -3.2359344964        1.4626716742
 C          6.3895324414       -3.9267918889        1.4804898654
 C          7.5401736930       -3.2923844512        1.0497300946
 C          7.5329543196       -1.9843441996        0.5835419709
 H         10.3888696988       -1.7420397539       -1.3241897121
 H          9.6071493840       -3.1914447535       -0.7012808083
 H          8.7582239137       -2.1590989325       -1.8526969584
 H          9.9916417874       -2.3410110518        1.7070447124
 H          9.3644355400       -0.7601420999        2.1748535495
 H         10.7502580765       -0.8771992268        1.0890314518
 H         10.7097322219        0.3754892369       -0.7383086523
 H         10.4742073865        2.6587251578       -1.5652953605
 H          8.2217389093        3.6961861279       -1.6749173371
 H          6.2680686298        2.4420569331       -0.9203706219
 H          5.4462271057        1.9020534447        1.7537019375
 H          3.2590017147        3.0412060757        1.7410437083
 H          2.0408302714        4.6197644985        0.1026536311
 H         -2.0321140511        4.6258677123       -0.0305892633
 H         -3.2532844559        3.0754387722       -1.7018856133
 H         -5.4426687720        1.9407153989       -1.7334049518
 H         -6.2698876668        2.4532402888        0.9230414032
 H         -8.2235851448        3.7038546331        1.6819961257
 H        -10.4758009445        2.6659832025        1.5694375001
 H        -10.7103446899        0.3850064043        0.7358644226
 H        -10.7566091959       -0.8675795524       -1.0868098720
 H         -9.9956164362       -2.3262789371       -1.7134331978
 H         -9.3760278829       -0.7415743420       -2.1783247763
 H         -8.7475593548       -2.1507625562        1.8422244389
 H         -9.6007333786       -3.1814487138        0.6924589873
 H        -10.3813869095       -1.7345639134        1.3229508331
 H         -8.4717786479       -3.8206309632       -1.1020249334
 H         -6.4340474945       -4.9220972561       -1.8679636550
 H         -4.2856383704       -3.6761490700       -1.8472445868
 H         -4.2203207162       -1.3801641643       -1.0334688050
 H         -4.2664485299       -0.4310791655        1.6150049175
 H         -2.0798209294        0.6952422730        1.6534797142
 H          2.0796589684        0.7159992762       -1.6508203101
 H          4.2641968545       -0.4145125556       -1.6310437349
 H          4.2159111891       -1.4041113269        1.0049276433
 H          4.2808184436       -3.7042657826        1.8068725191
 H          6.4314359616       -4.9463019153        1.8335674801
 H          8.4709713085       -3.8381423368        1.0823104952
