  89
 
 C         -3.8994547864       -5.4258013025       -0.9953467363
 C         -4.3081744609       -4.4860801740        0.1486509021
 C         -5.7069598437       -3.9430607696       -0.1565629335
 C         -4.3759249884       -5.2725024378        1.4659397741
 C         -3.2647521065       -3.3909166747        0.2825046640
 C         -1.9466403569       -3.7171471295        0.5600395989
 C         -0.9820586570       -2.7321161964        0.7308287852
 C         -1.2928034414       -1.3750518846        0.6100723465
 C         -0.3323898474       -0.3559165781        0.8619335071
 C          1.0349884714       -0.7212750099        1.2547048201
 C          1.2862608958       -1.3485245841        2.4743314554
 C          2.5805536121       -1.6718622190        2.8372482003
 C          3.6376341409       -1.3952640842        1.9896521926
 C          3.3968629159       -0.7973923078        0.7538348207
 N          4.4631974700       -0.5554494254       -0.1224569269
 C          5.4555040405       -1.4638927564       -0.4403178910
 C          5.5806661908       -2.7994115093       -0.0844260930
 C          6.6704454521       -3.4976868062       -0.5679493330
 C          7.6143824053       -2.8929237266       -1.3948734533
 C          7.4802203573       -1.5731339668       -1.7761822209
 C          6.3921175693       -0.8515072849       -1.3036060567
 C          5.9357276274        0.4936260983       -1.5120797283
 C          6.4363613131        1.5662346946       -2.2375972092
 C          5.7451550782        2.7607075218       -2.2148315505
 C          4.5722590762        2.8927774783       -1.4758034221
 C          4.0536528188        1.8385075383       -0.7487117759
 C          4.7372997396        0.6316043836       -0.7741784341
 C          2.0988253975       -0.4533826901        0.3974289608
 C         -0.6862200620        1.0202796747        0.7300051470
 C          0.2057220343        2.0327837126        1.0904964177
 C         -0.0846522577        3.3894022938        0.9087886811
 C          0.8679757451        4.4962702629        1.3255837129
 C          2.0643802413        3.9809831057        2.1307494057
 C          1.3892797768        5.1914681356        0.0596330025
 C          0.1169560697        5.5098538379        2.2016518288
 C         -1.2845084156        3.7038673190        0.2900271381
 C         -2.2101574510        2.7189719673       -0.0384443265
 C         -1.9743748026        1.3713230537        0.2361323949
 C         -2.9493831783        0.3521803714       -0.0066347869
 C         -4.2776010476        0.7101247613       -0.4734507141
 C         -4.8289761739        0.0993392999       -1.6109515190
 C         -6.0849083112        0.4333453020       -2.0597524605
 C         -6.8447258683        1.3853728062       -1.3705986468
 C         -8.1358348685        1.7233386171       -1.8205793014
 N         -9.1886333803        1.9981837896       -2.1877070121
 C         -6.3118966507        1.9981084086       -0.2309479181
 C         -5.0482220715        1.6695751818        0.2009995478
 C         -2.6171699814       -1.0259261932        0.2233823090
 C         -3.5747912700       -2.0343991529        0.1241833626
 H         -2.9380071236       -5.8928548560       -0.8010294824
 H         -4.6416888402       -6.2117539145       -1.1164268793
 H         -3.8273442086       -4.8726415668       -1.9295895018
 H         -6.4059921166       -4.7728760588       -0.2380162787
 H         -5.7222290102       -3.3999880913       -1.0988898462
 H         -6.0572889492       -3.2880372900        0.6380049107
 H         -3.4210728950       -5.7344307837        1.7010588755
 H         -4.6460467009       -4.6100315205        2.2857884387
 H         -5.1260168439       -6.0571417799        1.3949038802
 H         -1.6465231317       -4.7484928941        0.6649750821
 H          0.0312748336       -3.0238512969        0.9622424901
 H          0.4628059836       -1.5584184145        3.1406727767
 H          2.7701816864       -2.1378931585        3.7929996737
 H          4.6501963929       -1.6278953288        2.2817891108
 H          4.8451878006       -3.2855715280        0.5386676912
 H          6.7905647027       -4.5375765397       -0.3018384781
 H          8.4542818749       -3.4719444888       -1.7488234779
 H          8.2002936237       -1.1083806290       -2.4326435335
 H          7.3502281595        1.4636423728       -2.8030157200
 H          6.1163209181        3.6080024460       -2.7718001744
 H          4.0587564872        3.8431032389       -1.4704671822
 H          3.1445665611        1.9551808695       -0.1791437662
 H          1.9046470353       -0.0068466717       -0.5664899641
 H          1.1425242922        1.7370502584        1.5331783601
 H          1.7350890183        3.4350692086        3.0122807759
 H          2.6668544660        4.8244266176        2.4618128017
 H          2.7037306592        3.3372184377        1.5323557293
 H          2.1021898792        5.9693406821        0.3245501028
 H          0.5764615187        5.6465038532       -0.5003953365
 H          1.8852423010        4.4706909565       -0.5869801089
 H          0.7953817698        6.2964306206        2.5249011241
 H         -0.2857875542        5.0177383125        3.0845877708
 H         -0.7048283423        5.9741755911        1.6644487223
 H         -1.5322920320        4.7288505170        0.0615255643
 H         -3.1288815360        3.0143469704       -0.5218310491
 H         -4.2345849777       -0.6159696930       -2.1608256061
 H         -6.4926190240       -0.0299569529       -2.9466276460
 H         -6.9040729893        2.7241362624        0.3070910493
 H         -4.6530458204        2.1234359581        1.0981038122
 H         -4.5927012269       -1.7463510325       -0.0740507194
