  55
 
 C         -5.1340363245        3.0520214310       -2.1370366568
 C         -3.7535925666        3.0553293958       -2.1959202121
 C         -3.0167696718        2.1582619626       -1.4399725803
 C         -3.6517332405        1.2467837831       -0.6033166698
 C         -5.0544653355        1.2339283249       -0.5706147791
 C         -5.7837089791        2.1330703185       -1.3269703365
 O         -5.7606512074        0.3378449666        0.1895059118
 C         -5.0463255292       -0.5643010462        0.9348656385
 C         -5.7692994616       -1.4651051279        1.6954264381
 C         -5.1134209192       -2.3908149222        2.4924966532
 C         -3.7323674876       -2.3998549016        2.5331100037
 C         -3.0018063285       -1.5017574168        1.7723625876
 C         -3.6430677561       -0.5816464220        0.9500082548
 N         -2.9425627696        0.3339964133        0.1707469867
 C         -1.5255574468        0.3522016616        0.1769220270
 C         -0.8472506787        1.4496013381        0.7268368986
 C          0.5204194888        1.4585872144        0.7273288899
 C          1.2546681413        0.3829272740        0.1972172150
 C          0.5774165126       -0.7328016511       -0.3531079329
 C         -0.8232190191       -0.7085079900       -0.3535808684
 C          1.3404661929       -1.8328129532       -0.8903179086
 C          0.7463875580       -2.9812945916       -1.4359240832
 C          1.5027902020       -4.0104212745       -1.9413070020
 C          2.8964239113       -3.9369925097       -1.9236158082
 C          3.5097964258       -2.8317344201       -1.3945625621
 C          2.7535588733       -1.7699496517       -0.8714872624
 C          3.4345015726       -0.6393299635       -0.3213737204
 N          4.7566916777       -0.5752766174       -0.3029487438
 C          5.4148759089        0.4684034806        0.2043011746
 C          6.8044144072        0.5442748237        0.2285411352
 C          7.4467095841        1.6464930602        0.7636980692
 C          6.7118098441        2.6991404654        1.2885820938
 C          5.3293669580        2.6579883106        1.2835236342
 C          4.6480637884        1.5651534650        0.7535571150
 N          3.3178338011        1.4836404257        0.7332117280
 C          2.6796313543        0.4392663009        0.2205095441
 H         -5.7100477657        3.7514694159       -2.7218454467
 H         -3.2372009910        3.7554746716       -2.8341827579
 H         -1.9399732446        2.1600350275       -1.5017271283
 H         -6.8597392607        2.0945843776       -1.2703291482
 H         -6.8457862657       -1.4216909649        1.6526450528
 H         -5.6846741009       -3.0910946306        3.0809521122
 H         -3.2101911244       -3.1057256620        3.1602874885
 H         -1.9243485345       -1.5091071324        1.8208041160
 H         -1.4121076607        2.2698849239        1.1435051282
 H          1.0719297843        2.2882429444        1.1421187202
 H         -1.3851974650       -1.5277353309       -0.7737847630
 H         -0.3280780479       -3.0713370211       -1.4630345132
 H          1.0164941557       -4.8818547469       -2.3545140218
 H          3.4847789573       -4.7491115623       -2.3237939732
 H          4.5854362755       -2.7478126417       -1.3642324811
 H          7.3648705420       -0.2809477635       -0.1827375623
 H          8.5254456794        1.6835558039        0.7704076172
 H          7.2176617576        3.5572715856        1.7044608886
 H          4.7469528247        3.4712387620        1.6881624174
