80
 xtb: 6.7.1 (edcfbbe)
C            0.60700473844552       -0.61161469585618        0.40210001961817
C            1.48799531538250        0.07832385384119       -0.33921567263748
C            2.93157130671444        0.02295821200754       -0.23679452350780
C            3.69764928555812        0.82769545555276       -1.08813921029072
C            5.07475555974595        0.82133367134896       -1.04020257699752
C            5.73753864409297       -0.00430416334491       -0.13469128812271
N            7.13632242775824       -0.02057924911627       -0.08107276798752
C            7.98496204886482       -0.17478168121032       -1.15983437760789
C            7.68483025227452       -0.39241348659907       -2.49740897838793
C            8.73820865990304       -0.54390438410755       -3.37882830507828
C           10.06176963005546       -0.49060441473881       -2.94708154052271
C           10.36634737276832       -0.29866081287838       -1.61401021431700
C            9.32467658895384       -0.14339520472131       -0.70873204731928
C            9.27204264391779        0.04660734881247        0.71413716257751
C           10.24420015592071        0.17569685106958        1.69751921946964
C            9.84244505497783        0.37743395171567        3.00309599355969
C            8.49128899522479        0.46622529545976        3.33101287100398
C            7.50570711862869        0.34094596745727        2.37056798226128
C            7.90273743261051        0.11334537387103        1.06018476247546
C            4.99021772524559       -0.81548923892073        0.71746181741575
C            3.61336374350547       -0.79781109482678        0.66810432530609
C           -0.83594743681371       -0.55898588164889        0.29455572962920
C           -1.51461743948968        0.19747422775849       -0.66697046542516
C           -2.89022000623541        0.21494135431792       -0.71732949000857
C           -3.65163625791355       -0.52314334881491        0.19016169078423
C           -5.11938005785904       -0.52720619142579        0.13051118180682
C           -5.84267676685768        0.60323773626824       -0.03925043260799
C           -5.23853206552988        1.94413014793130        0.02623995102490
C           -5.58160016518633        2.91264432133625       -0.91550579551763
C           -5.03046931842440        4.17869882232048       -0.85406233900104
C           -4.14006733338942        4.50212550724185        0.15629611116092
C           -3.80807747992919        3.55251915375189        1.10897823901731
C           -4.35235591957261        2.28417418991200        1.04693122117889
C           -7.29160541572230        0.58092210286390       -0.29761235085263
C           -7.84051090954687       -0.28729150767404       -1.23964679679735
C           -9.19943768522976       -0.28284406738233       -1.48858237290857
C          -10.03202007273086        0.58696765872647       -0.80330656739869
C           -9.49485811500036        1.46259594761781        0.12570429199358
C           -8.13492976997633        1.46584399807596        0.37190106872546
C           -5.74927153646713       -1.85125022240892        0.27155122868622
C           -6.83567446056615       -2.04341855995626        1.12273089559116
C           -7.40388384052527       -3.29514469595720        1.26183184097003
C           -6.89742014749872       -4.37430168464072        0.55595132749524
C           -5.80984664957400       -4.19641377062549       -0.28283874303553
C           -5.23492727863217       -2.94690888127525       -0.41920052711047
C           -2.98215246045469       -1.30046589456712        1.13538476446640
C           -1.60588832328279       -1.31063571063254        1.18923670548111
H            0.96934900595384       -1.27998242368983        1.16849769895383
H            1.12397327739886        0.73812606063921       -1.11927978957190
H            3.19753056761726        1.44071133184692       -1.82748275712618
H            5.64819146692019        1.43601051419124       -1.72001746813258
H            6.66556183726361       -0.50074362805902       -2.83123112843021
H            8.53528246370540       -0.78477497429958       -4.41054665027222
H           10.86086080729728       -0.67062870169706       -3.65221993501945
H           11.39265670055651       -0.29174059777392       -1.26682181310402
H           11.28955546666606        0.15179988618684        1.44146334844373
H           10.57795660078719        0.54653707417761        3.77687650697375
H            8.20265697007335        0.71952833027269        4.34654208324844
H            6.45890868190751        0.47936941717016        2.62231260030545
H            5.49962446740285       -1.44108133971298        1.43229739299866
H            3.05995326920451       -1.41388542113519        1.35689430575809
H           -0.96064837722152        0.78253580351724       -1.38798026419919
H           -3.39188248408832        0.80420657419584       -1.47473490924739
H           -6.27415675655744        2.67389171650230       -1.68408135712636
H           -5.29475762363159        4.92830151065905       -1.55811370091490
H           -3.70542056614628        5.48787399994622        0.24562707022123
H           -3.11788553261724        3.78518602041066        1.93330250617884
H           -4.09779518029374        1.53452018800221        1.80942843260573
H           -7.19645066490813       -0.94321204272730       -1.78992700806091
H           -9.61556535520696       -0.93823142372385       -2.22510081395965
H          -11.09535426269486        0.59913407335981       -0.98456185728999
H          -10.13536528312362        2.14599587131731        0.68213472540076
H           -7.71312275005188        2.14163098488811        1.11797139260332
H           -7.22509420330889       -1.21888023801123        1.67617606445839
H           -8.24541566014991       -3.44362598285849        1.90304364065249
H           -7.34887324057528       -5.35506888997365        0.62451375521336
H           -5.41179516019401       -5.02937825125169       -0.87015114649127
H           -4.39032351619150       -2.80180670383816       -1.09806507821588
H           -3.55470468875405       -1.90200781906612        1.82430923608169
H           -1.10784219224099       -1.92605241225298        1.92197541028712
