  72
 
 N         -1.9674640787       -8.3840598105       -0.1526860886
 C         -1.4193065787       -7.3793817843       -0.1101332941
 C         -0.7075658145       -6.1542401451       -0.0541257438
 N         -1.3849576109       -5.0209181592       -0.1101341233
 C         -0.7062205705       -3.8756123633       -0.0552158916
 C         -1.4260981383       -2.6323038360       -0.1151947379
 C         -2.8220943292       -2.6464331802       -0.2260205890
 C         -3.5325169084       -1.4745525565       -0.2883448811
 C         -2.8491151136       -0.2544733452       -0.2426152812
 N         -3.5541648568        0.9747424826       -0.2948732943
 C         -4.2051061513        1.3221041821       -1.4808428307
 C         -4.2113699057        0.4460021037       -2.5675200561
 C         -4.8642301728        0.7581455597       -3.7467233063
 C         -5.5338212231        1.9596139718       -3.8791524355
 C         -5.5053021348        2.8590280514       -2.8290836515
 C         -4.8367361478        2.5571499527       -1.6535448544
 S         -4.7566008307        3.8533806302       -0.4510080825
 C         -4.2229867928        2.9627251321        0.9802790902
 C         -4.3446832689        3.6163110839        2.1963025226
 C         -3.9358044619        3.0100169784        3.3699423025
 C         -3.4262968394        1.7261774500        3.3181035757
 C         -3.3194060991        1.0649431561        2.1078632755
 C         -3.6945152265        1.6721543120        0.9077111036
 C         -1.4711737336       -0.2294363269       -0.1249517548
 C         -0.7241095800       -1.4087150606       -0.0570476753
 C          0.7251971904       -1.4088682829        0.0625855676
 C          1.4724888559       -0.2298095563        0.1302150883
 C          2.8507718455       -0.2549174505        0.2452252226
 N          3.5557886043        0.9741242933        0.2958506782
 C          4.2163829766        1.3186989939        1.4773903321
 C          4.2329327134        0.4396438908        2.5615936312
 C          4.8963863638        0.7487490074        3.7356600495
 C          5.5664838702        1.9502282457        3.8654905087
 C          5.5271148983        2.8529352804        2.8186409072
 C          4.8479216056        2.5540568459        1.6484111125
 S          4.7539467081        3.8548190166        0.4518448138
 C          4.2086504105        2.9686817180       -0.9777309147
 C          4.3175539909        3.6273511673       -2.1922672562
 C          3.8999498451        3.0244578853       -3.3645442760
 C          3.3952783454        1.7386680187       -3.3132110664
 C          3.3011096110        1.0725024253       -2.1046456711
 C          3.6842050442        1.6764724542       -0.9053416326
 C          3.5339905878       -1.4752316450        0.2887586492
 C          2.8232129681       -2.6469554528        0.2278164495
 C          1.4270116746       -2.6326637648        0.1195378796
 C          0.7068574823       -3.8757490692        0.0601902329
 N          1.3853102758       -5.0212831179        0.1154191609
 C          0.7076026446       -6.1543837214        0.0598005189
 C          1.4189215626       -7.3797904626        0.1158952620
 N          1.9662927046       -8.3848570179        0.1593329391
 H         -3.3202609127       -3.6027146203       -0.2524910228
 H         -4.6095165583       -1.4805264100       -0.3609266339
 H         -3.6847785837       -0.4926807747       -2.5006583524
 H         -4.8426793599        0.0511918482       -4.5618843096
 H         -6.0550323697        2.2060703964       -4.7903442345
 H         -5.9879086949        3.8208294126       -2.9122775439
 H         -4.7572609190        4.6135872960        2.2038360317
 H         -4.0235332074        3.5328631094        4.3089443611
 H         -3.1145451028        1.2244052734        4.2213106477
 H         -2.9381306483        0.0556556773        2.0963181643
 H         -0.9906153693        0.7347601874       -0.0838999277
 H          0.9919286115        0.7344441028        0.0904045095
 H          3.7059788578       -0.4989844137        2.4971866318
 H          4.8826852884        0.0394022579        4.5489050108
 H          6.0961579702        2.1942133942        4.7724537650
 H          6.0093424288        3.8150497499        2.9004006013
 H          4.7272460942        4.6258171897       -2.1995652389
 H          3.9775593622        3.5512509507       -4.3022279205
 H          3.0774495312        1.2392446711       -4.2155985693
 H          2.9236685636        0.0617748369       -2.0938243489
 H          4.6111970203       -1.4816026595        0.3581409706
 H          3.3213327861       -3.6032996559        0.2528919232
