86

C      5.965976   -5.614168    1.114247
C      6.151364   -4.399638    0.217806
C      4.927922   -3.479637    0.175803
C      3.696868   -4.143061   -0.454714
C      2.531409   -3.157881   -0.701555
C      1.502311   -3.756389   -1.689444
C      0.932168   -5.114247   -1.301655
C      1.888900   -2.696647    0.627148
N      1.001445   -1.545652    0.485242
C      1.445814   -0.245516    0.309787
C      2.744139    0.286174    0.231874
C      2.887989    1.662891    0.028594
C      1.769787    2.490051   -0.094278
N      1.936817    3.891895   -0.305769
C      2.845357    4.709122    0.372094
C      3.740268    4.441174    1.430013
C      4.528355    5.482298    1.929440
C      4.422740    6.765685    1.411190
C      3.509965    7.039238    0.389966
C      2.699913    6.004785   -0.129526
C      1.676160    5.976467   -1.120967
C      1.108540    6.970727   -1.948891
C      0.119791    6.628405   -2.874166
C     -0.298988    5.310519   -2.994721
C      0.245615    4.309125   -2.185469
C      1.217178    4.661104   -1.224101
C      0.478193    1.948266   -0.009151
C      0.313941    0.560825    0.198664
C     -0.831966   -0.278203    0.354160
C     -2.221848   -0.024919    0.349011
C     -3.122289   -1.082790    0.541511
N     -4.526793   -0.828239    0.537642
C     -5.486468   -1.604683   -0.117330
C     -5.366637   -2.730623   -0.959817
C     -6.524922   -3.298505   -1.498612
C     -7.774142   -2.756417   -1.229449
C     -7.889691   -1.619567   -0.426233
C     -6.733743   -1.025229    0.127552
C     -6.526799    0.130353    0.936056
C     -7.403945    1.093212    1.483527
C     -6.901312    2.119313    2.286908
C     -5.542739    2.189822    2.562662
C     -4.654333    1.250538    2.030911
C     -5.156790    0.236202    1.187890
C     -2.647326   -2.379912    0.740804
C     -1.274149   -2.649335    0.749250
C     -0.379823   -1.585011    0.546916
H      5.198723   -6.288377    0.722541
H      5.680356   -5.314963    2.127627
H      6.901376   -6.179299    1.178841
H      7.007524   -3.821789    0.586019
H      6.405447   -4.729933   -0.796094
H      4.702564   -3.142533    1.193152
H      5.192558   -2.587122   -0.404203
H      3.997077   -4.586009   -1.412872
H      3.353773   -4.963344    0.186206
H      2.950228   -2.277567   -1.206972
H      0.677039   -3.051306   -1.838970
H      1.983692   -3.861499   -2.670448
H      1.705187   -5.888536   -1.310811
H      0.162846   -5.412960   -2.021352
H      0.474069   -5.099974   -0.310630
H      2.650955   -2.388271    1.350909
H      1.336594   -3.509485    1.107068
H      3.623468   -0.345121    0.312447
H      3.894306    2.063698   -0.075683
H      3.815994    3.453922    1.875223
H      5.225050    5.284140    2.740759
H      5.040084    7.566016    1.810916
H      3.417346    8.050559    0.004208
H      1.445685    8.000716   -1.874455
H     -0.311403    7.396054   -3.511498
H     -1.053799    5.049555   -3.733134
H     -0.074671    3.280623   -2.322229
H     -0.403360    2.581195   -0.054632
H     -2.570785    0.985518    0.156655
H     -4.398489   -3.151705   -1.212817
H     -6.443086   -4.169839   -2.144338
H     -8.666018   -3.206994   -1.657190
H     -8.868682   -1.188176   -0.237476
H     -8.470977    1.032610    1.288971
H     -7.580370    2.855651    2.708916
H     -5.163209    2.979496    3.207237
H     -3.601099    1.307743    2.288851
H     -3.332597   -3.202167    0.937320
H     -0.927613   -3.662449    0.921114
