  58
 
 C         -6.6964231087       -2.4686448835       -0.2030443140
 C         -6.2584307378       -1.6953011831        0.8600291761
 C         -4.9751583379       -1.1827117341        0.8664865163
 C         -4.1048972528       -1.4366177636       -0.1929744735
 C         -2.7300968972       -0.9161118032       -0.1772964017
 C         -1.6777483578       -1.7905055829       -0.4566788505
 C         -0.3506728377       -1.3853827343       -0.4239459257
 N          0.6686254506       -2.2012425629       -0.7136222645
 C          1.9202831615       -1.7818802398       -0.6087273518
 C          2.2162521768       -0.5023136692       -0.1448655121
 N          3.5217326118       -0.0583688543       -0.0449981023
 C          3.8125321332        1.2777721926       -0.3452971021
 C          4.8365225648        1.9397703892        0.3360091723
 C          5.1004350355        3.2678077479        0.0680255952
 C          4.3514537293        3.9578784425       -0.8737717496
 C          3.3326376121        3.3057877426       -1.5486849051
 C          3.0645281624        1.9738187517       -1.2948147556
 C          4.5397845191       -0.9536174393        0.3070284938
 C          5.7839879069       -0.8879057671       -0.3234654865
 C          6.7828880637       -1.7776607364        0.0215999860
 C          6.5577455820       -2.7443548263        0.9894202308
 C          5.3224675122       -2.8152233583        1.6158834990
 C          4.3176988824       -1.9283186818        1.2814835315
 N          1.2187707632        0.3405466293        0.1625710658
 C         -0.0501893402       -0.0281487720       -0.0116031216
 C         -1.1150230963        0.8293223313        0.2453815572
 C         -2.4439665938        0.4178814141        0.1499197473
 C         -3.5065391869        1.4162850357        0.3457258705
 C         -3.4709351347        2.2832590577        1.4362230541
 C         -4.4630974856        3.2295438032        1.6159851677
 C         -5.5004608663        3.3335883849        0.7040001336
 C         -5.5359142011        2.4879690307       -0.3931963639
 C         -4.5482080661        1.5382822295       -0.5726699828
 C         -4.5510322681       -2.2281481952       -1.2500931520
 C         -5.8375120114       -2.7344173308       -1.2570385149
 H         -7.7012361654       -2.8652046787       -0.2085000557
 H         -6.9200651461       -1.4917162792        1.6897167701
 H         -4.6341850681       -0.5913032262        1.7035769559
 H         -1.8835152919       -2.8250482421       -0.6862938229
 H          2.7041451538       -2.4470770539       -0.9370349838
 H          5.4059970845        1.4112263321        1.0857479965
 H          5.8902404057        3.7707991198        0.6057270573
 H          4.5609482419        4.9964878903       -1.0791691997
 H          2.7462813798        3.8330105161       -2.2864823013
 H          2.2832870277        1.4659513321       -1.8395786425
 H          5.9533384145       -0.1433838702       -1.0870622852
 H          7.7397831176       -1.7210879645       -0.4750814763
 H          7.3395636448       -3.4395839328        1.2537875299
 H          5.1413509572       -3.5623893165        2.3739525576
 H          3.3583242575       -1.9747261697        1.7759735891
 H         -0.8834868257        1.8586377650        0.4751092023
 H         -2.6698276580        2.1954697238        2.1565951940
 H         -4.4275520467        3.8878821168        2.4724242720
 H         -6.2758265341        4.0723868744        0.8453043411
 H         -6.3365203931        2.5704532773       -1.1142887520
 H         -4.5733447999        0.8900889313       -1.4365334614
 H         -3.8867402116       -2.4272637649       -2.0793014331
 H         -6.1720405138       -3.3386820675       -2.0882513359
