  51
 
 C          4.9773156349        0.1308601255        0.5228577218
 C          3.6094427484        0.7021974691        0.6974348825
 C          3.4714285893        2.0260099209        1.2307674845
 C          2.2320326502        2.5536454435        1.4410373039
 C          1.0755254520        1.8172001517        1.1286219038
 C          1.1938463147        0.5035031474        0.5290561878
 C          2.4741412884       -0.0071480294        0.3610524911
 C         -0.0310264854       -0.2077905753        0.0258349454
 C          0.1199043277        0.0421245736       -1.4739520277
 C         -0.4558368688        1.1687978084       -2.0671433644
 C         -0.2812215583        1.4316557628       -3.4092431746
 C          0.4747105597        0.5775109603       -4.2037259673
 C          1.0573782245       -0.5401068230       -3.6240149004
 C          0.8917936009       -0.8028612032       -2.2796773594
 C         -0.0444726228       -1.6717359516        0.4267053546
 C         -0.5555062243       -2.6672891913       -0.4037127704
 C         -0.5935570225       -3.9848918115        0.0184454292
 C         -0.1355905787       -4.3315628891        1.2776229329
 C          0.3560871565       -3.3431602615        2.1191222546
 C          0.3987935145       -2.0286014552        1.6967463764
 C         -1.3247249992        0.3815955212        0.5225351744
 C         -2.5433450322       -0.2202756672        0.2854059685
 C         -3.7473391637        0.3334270584        0.7057952700
 C         -5.0532157411       -0.3433843661        0.4487191675
 C         -3.7254707462        1.5786203590        1.3941148699
 C         -2.5442238858        2.2122581966        1.6363903167
 C         -1.3223435987        1.6422566255        1.2150118576
 N         -0.1537204501        2.2926792423        1.4388573175
 H          4.9320092946       -0.8789010355        0.1225805667
 H          5.5625063424        0.7513562437       -0.1579631635
 H          5.5069625938        0.1071713695        1.4767734000
 H          4.3600239390        2.5879580865        1.4719782217
 H          2.1174294221        3.5432894791        1.8634870295
 H          2.5844965139       -1.0025577846       -0.0441092831
 H         -1.0578144453        1.8404269852       -1.4722121699
 H         -0.7415800078        2.3073183054       -3.8454341751
 H          0.6078136710        0.7822134458       -5.2557431591
 H          1.6517263630       -1.2123553686       -4.2276445454
 H          1.3622370585       -1.6756108352       -1.8527061355
 H         -0.9197307534       -2.4144952774       -1.3892378036
 H         -0.9872147604       -4.7449068960       -0.6421918591
 H         -0.1639842579       -5.3609528962        1.6042008177
 H          0.7069581735       -3.6003573005        3.1084667145
 H          0.7838123006       -1.2648893445        2.3578870771
 H         -2.5658717027       -1.1605848375       -0.2445770105
 H         -4.9071166266       -1.2935770348       -0.0587852583
 H         -5.5809191152       -0.5247175849        1.3863309743
 H         -5.6950565275        0.2873365090       -0.1690193317
 H         -4.6583742820        2.0140714400        1.7186249004
 H         -2.5202818926        3.1616945342        2.1542115557
 H         -0.2032199469        3.1968255358        1.8971384634
