43
 xtb: 6.7.1 (edcfbbe)
N           -6.68684294761746       -3.99631741110345        0.00445014136195
C           -5.75441957278956       -3.31144037838097        0.01435632355793
C           -4.63442851560947       -2.48716365545972        0.02987596578839
C           -3.33615317912119       -3.02165370435112       -0.18897360378883
C           -2.24830651680123       -2.20784780550606       -0.18132288744010
C           -2.36564260635092       -0.79999081526984        0.04956944041976
C           -1.19299043477074       -0.01453675387528        0.09888863146995
C           -1.19757656633619        1.42221920671884        0.12085643309477
C           -0.01370410409837        2.10820491986129        0.01668616253957
C           -0.00208509115052        3.58447014369852        0.01286332051899
C           -0.90241213170826        4.29163107512970       -0.77894902183647
C           -0.88809319551223        5.67491843510133       -0.78334483289405
C            0.01638448093273        6.36496472763910        0.00721721373444
C            0.91127430521542        5.66610924074637        0.80070961672802
C            0.90876751500551        4.28261756379627        0.80056868286150
C            1.19767423296324        1.40485460129291       -0.09182434217961
C            1.15627005762939       -0.00694027321316       -0.07990468927348
C            2.36755552315961       -0.82209097116687       -0.06528555498621
C            3.62000234927346       -0.31490058048209       -0.43949651711305
C            4.73515798346862       -1.12251519345461       -0.43462177348742
C            4.62822517976705       -2.46555220903737       -0.04640825278875
C            5.76990498521911       -3.28944586339874       -0.03182345940845
N            6.70322409687698       -3.96049314332908       -0.01991157381872
C            3.37864647773254       -2.98475671475395        0.32504685120287
C            2.27108238287440       -2.17138584338232        0.31314275939871
N            0.00343984148306       -0.61286709613044        0.02663347345592
C           -3.67826154784134       -0.27849001637182        0.25614014349195
C           -4.76943138874472       -1.09296642541450        0.26191022218760
H           -3.25030123982793       -4.06683387853697       -0.44063140369139
H           -1.27075505360183       -2.59587976854089       -0.42059092978763
H           -2.14081389963240        1.93476428727301        0.11062038706945
H           -1.60017643724261        3.75150611885706       -1.41722796943624
H           -1.59890777287371        6.20895760001477       -1.41289892675835
H            0.00512380985768        7.44537917362494       -0.00136299908456
H            1.60413427250024        6.20660254766787        1.41382309994345
H            1.59760706478998        3.74955451635447        1.42346116647594
H            2.13890935598701        1.93085248795620       -0.09260359930358
H            3.75800485801670        0.73730921349274       -0.64295129223418
H            5.71915087998843       -0.71299396763576       -0.62811078108028
H            3.27443601195843       -4.04382817684689        0.52887263386050
H            1.28900343634950       -2.57956173710548        0.51084413216338
H           -3.78901915067577        0.75661897033557        0.53438353882911
H           -5.73846645508564       -0.70348828468816        0.52984009479870
