43

N     -6.829404   -4.365849    0.386912
C     -5.878102   -3.703344    0.330354
C     -4.706494   -2.880555    0.259271
C     -3.504145   -3.318551    0.814712
C     -2.363243   -2.510837    0.740900
C     -2.390435   -1.247428    0.118715
C     -1.169675   -0.414882    0.055744
C     -1.196472    0.976542    0.063516
C      0.001141    1.696579   -0.000008
C      0.002134    3.166879   -0.000000
C     -0.705337    3.889794   -0.974718
C     -0.704074    5.287141   -0.975510
C      0.004048    5.984320    0.000011
C      0.711217    5.286175    0.975530
C      0.710583    3.888826    0.974726
C      1.197783    0.974928   -0.063538
C      1.169109   -0.416458   -0.055771
C      2.388746   -1.250651   -0.118733
C      3.611903   -0.836405    0.440588
C      4.756306   -1.641914    0.370716
C      4.702599   -2.886906   -0.259256
C      5.873096   -3.711276   -0.330317
N      6.823503   -4.375065   -0.386859
C      3.499664   -3.323281   -0.814701
C      2.359853   -2.514029   -0.740904
N     -0.000744   -1.099819   -0.000015
C     -3.613030   -0.831543   -0.440612
C     -4.758521   -1.635503   -0.370721
H     -3.439181   -4.287329    1.306488
H     -1.434434   -2.875284    1.180401
H     -2.138882    1.509869    0.144364
H     -1.255969    3.366111   -1.753641
H     -1.253890    5.830130   -1.740091
H      0.004787    7.071352    0.000013
H      1.261770    5.828411    1.740117
H      1.260500    3.364389    1.753647
H      2.140910    1.506985   -0.144381
H      3.688808    0.117022    0.959539
H      5.684420   -1.289485    0.817567
H      3.433397   -4.291969   -1.306477
H      1.430557   -2.877224   -1.180409
H     -3.688643    0.121968   -0.959591
H     -5.686157   -1.281832   -0.817580
