  80
 
 C         10.0150333198        0.7460153440        0.2651730376
 C          8.6124061934        0.4721230902        0.7968662033
 C          7.7145368855        1.7115000033        0.8028889879
 C          7.4405188515        2.3269765630       -0.5719719397
 C          6.7545204447        1.4000956166       -1.5780191473
 C          5.3378291236        1.0066536967       -1.1682279511
 O          4.5490624166        2.1827535200       -1.1256105257
 C          3.2581294599        2.1043670734       -0.7063078817
 C          2.5762505639        3.3309245388       -0.6515870133
 C          1.2576606119        3.4002933823       -0.2654298955
 C          0.6009690278        2.2298443454        0.0970844344
 C         -0.7405956984        1.9319255433        0.5163900173
 C         -1.8638491151        2.7053417124        0.7625544655
 C         -3.0264707235        2.0990343057        1.1995627884
 C         -3.0770971376        0.7185890798        1.4150845887
 O         -4.1613184418        0.0329455083        1.8825354097
 C         -5.3839045079        0.7067485324        2.1212893605
 C         -6.1683089495        0.9907091535        0.8381506018
 C         -7.4890111342        1.6938074466        1.1441284992
 C         -8.3512855563        1.9237210860       -0.0983167878
 C         -7.7651891016        2.9486272341       -1.0685400005
 C         -8.7093503612        3.2219039246       -2.2342958298
 C         -1.9550381748       -0.0747215652        1.1735525765
 C         -0.8045013169        0.5337190686        0.7109222133
 N          0.4385925307       -0.0197626992        0.4387021916
 C          0.7701334988       -1.3663529019        0.5397000275
 C          1.9416121073       -1.7771569298        1.1796523025
 C          2.2153057406       -3.1322160606        1.2445029408
 N          1.4263498790       -4.0656995412        0.7451106695
 C          0.3063339876       -3.6830202592        0.1390840315
 C         -0.5477869266       -4.7549481964       -0.4116827139
 C         -1.1126513044       -4.6474915716       -1.6818328231
 C         -1.8978815087       -5.6552949964       -2.2128301212
 C         -2.1305542445       -6.7921600499       -1.4647222063
 F         -2.8895932202       -7.7766291822       -1.9745795832
 C         -1.5962029743       -6.9447236352       -0.1819427336
 C         -1.8519449840       -8.1062863980        0.5832977971
 N         -2.0659529307       -9.0491973928        1.1979701459
 C         -0.8016396951       -5.9101651018        0.3220821676
 F         -0.3163956691       -6.0426756147        1.5635342859
 C         -0.0620233653       -2.3486900259        0.0028475861
 C          1.2980079441        1.0052513234        0.0685755464
 C          2.6177616533        0.9229539190       -0.3521399765
 H         10.4787431832        1.5610826501        0.8174624298
 H          9.9896854140        1.0134840348       -0.7880144507
 H         10.6383793762       -0.1392636835        0.3743566037
 H          8.1490971356       -0.3219620689        0.2082424485
 H          8.6912044439        0.1081662948        1.8249730259
 H          6.7663270634        1.4545059451        1.2806342531
 H          8.1861546989        2.4783412317        1.4232283533
 H          8.3816057691        2.6678654939       -1.0059936327
 H          6.8064052448        3.2053723852       -0.4331313760
 H          7.3360217651        0.4890324763       -1.7184827531
 H          6.6953709680        1.9159589311       -2.5386580499
 H          5.3432991945        0.5204329527       -0.1849227062
 H          4.9209205644        0.3038481579       -1.9039043388
 H          3.1211351768        4.2174183101       -0.9360074479
 H          0.7410787959        4.3472572426       -0.2472378952
 H         -1.8336842494        3.7745872883        0.6197702087
 H         -3.8908461496        2.7146211409        1.3873465362
 H         -5.2126689141        1.6307521231        2.6865682366
 H         -5.9491521355        0.0183146073        2.7568179978
 H         -6.3610697493        0.0418554693        0.3326237514
 H         -5.5588089435        1.6038096384        0.1733396983
 H         -7.2860125464        2.6544756833        1.6237809700
 H         -8.0524156392        1.0837492795        1.8545322982
 H         -8.4949386593        0.9739069138       -0.6186332779
 H         -9.3349474118        2.2741960533        0.2243788033
 H         -6.8135838491        2.5861492667       -1.4610791108
 H         -7.5729581742        3.8818672103       -0.5333156498
 H         -9.6590055553        3.6129997427       -1.8745172660
 H         -8.2747339879        3.9497895637       -2.9161428179
 H         -8.9054392105        2.3064163825       -2.7889970333
 H         -2.0185567480       -1.1314282770        1.3780685209
 H          2.6011673239       -1.0574165518        1.6363749354
 H          3.1104435312       -3.4970709948        1.7304862431
 H         -0.9167998239       -3.7639849241       -2.2683691048
 H         -2.3274342329       -5.5730993643       -3.1981710480
 H         -0.9733772709       -2.0760055533       -0.5037019835
 H          3.1169254032       -0.0296589409       -0.4169121179
