  98
 
 C         -4.2954133586        6.6633446714       -0.5510884566
 O         -3.7465665141        5.6288226801       -1.3398305230
 C         -3.9041620943        4.3391380005       -0.9310499032
 C         -3.3420889799        3.3640096227       -1.7606088361
 C         -3.4328410201        2.0296321018       -1.4391823463
 C         -4.0848956570        1.6242578934       -0.2704029939
 N         -4.1546087161        0.2684453828        0.0697608375
 C         -5.3147749579       -0.2381133164        0.6623266721
 C         -5.2393795527       -1.2006075212        1.6673168538
 C         -6.3834694774       -1.7054560323        2.2565982992
 C         -7.6362610748       -1.2502225185        1.8557749988
 O         -8.8254449874       -1.6740841942        2.3669610754
 C         -8.8169198615       -2.6636409268        3.3736552622
 C         -7.7147049121       -0.2806371800        0.8514783869
 C         -6.5748714215        0.2157384037        0.2623002707
 C         -3.0554081418       -0.5554323047       -0.1660686230
 C         -3.2442653898       -1.9034658587       -0.5210313288
 C         -2.1649409880       -2.7327861923       -0.7950431398
 C         -0.8880041632       -2.2048850198       -0.7139596494
 C         -0.6798573943       -0.8494727456       -0.3184862373
 C         -1.7681985646       -0.0278040848       -0.0505341713
 C          0.7270660313       -0.6399796139       -0.3099446386
 C          1.5249167025        0.4653367491       -0.0388207868
 C          2.9063057827        0.3558407573       -0.2084835178
 N          3.7181752621        1.4624897721        0.0345019599
 C          3.2377114785        2.7485153821       -0.2353079955
 C          2.4339309596        2.9862249767       -1.3493445596
 C          1.9226126429        4.2445420066       -1.6042681193
 C          2.2168440259        5.3049669586       -0.7513412047
 O          1.7632821350        6.5794651822       -0.9009598030
 C          0.9031577453        6.8717989461       -1.9823501735
 C          3.0410946651        5.0747297385        0.3543154389
 C          3.5405661213        3.8185345866        0.6114985328
 C          4.9953467038        1.2979521003        0.5781658954
 C          6.0532682810        2.1181129538        0.1755301837
 C          7.3069313694        1.9559848280        0.7183083745
 C          7.5490790204        0.9668184357        1.6764764262
 O          8.8256720294        0.8921453580        2.1441993747
 C          9.1387266440       -0.0898843304        3.1087805550
 C          6.4983868711        0.1475251761        2.0798129236
 C          5.2383634825        0.3165250465        1.5375804452
 C          3.4782884467       -0.8561590537       -0.6365308068
 C          2.6946850499       -1.9734353869       -0.8861117641
 C          1.3255298959       -1.8719757633       -0.7095830505
 N          0.3341797146       -2.8043787010       -0.9262726390
 C          0.5201021025       -4.1190391104       -1.3704685457
 C         -0.1313679062       -4.5232839510       -2.5427443794
 C          0.0638499028       -5.7907447113       -3.0522957900
 C          0.8985639233       -6.6871265887       -2.4001321562
 C          1.5446604436       -6.3307427574       -1.2000600677
 C          2.3675116761       -7.2398064916       -0.5080941163
 C          2.9554504561       -6.8980680437        0.6960670005
 C          2.7257863255       -5.6470288061        1.2485587114
 C          1.9331122436       -4.7233886932        0.5860819264
 C          1.3499666469       -5.0277143824       -0.6541274140
 C         -4.6530339039        2.5971766480        0.5487219013
 C         -4.5686700321        3.9391566734        0.2246023897
 H         -4.0520086925        7.5872860412       -1.0731280432
 H         -3.8500564237        6.6816750751        0.4481193586
 H         -5.3820665289        6.5683284507       -0.4681336198
 H         -2.8433035526        3.6823918196       -2.6625670740
 H         -3.0024171021        1.2861351379       -2.0926272145
 H         -4.2724006420       -1.5524896951        1.9941051270
 H         -6.2829115078       -2.4471855807        3.0325752567
 H         -8.3594566741       -3.5915063726        3.0173270147
 H         -9.8636182801       -2.8446701528        3.6124894924
 H         -8.2943590647       -2.3165626155        4.2701184704
 H         -8.6906745643        0.0606704307        0.5439692678
 H         -6.6507725265        0.9542476990       -0.5214582896
 H         -4.2477243313       -2.2904625067       -0.6036788893
 H         -2.3265166442       -3.7617250140       -1.0777258389
 H         -1.6204145801        0.9956565669        0.2562258698
 H          1.0853212135        1.3883025108        0.3051267301
 H          2.2074222316        2.1734795827       -2.0229874273
 H          1.3016973995        4.3860597444       -2.4740331001
 H          1.3966000395        6.6969674572       -2.9430544692
 H         -0.0185233597        6.2848168256       -1.9295078226
 H          0.6651672170        7.9298330472       -1.8860570291
 H          3.2647266390        5.9027985881        1.0084429606
 H          4.1595174917        3.6524534046        1.4801304830
 H          5.8838234975        2.8779336730       -0.5723070224
 H          8.1292721720        2.5818281934        0.4091244699
 H         10.1993713907        0.0368153016        3.3193687794
 H          8.9623045757       -1.0985867447        2.7235024989
 H          8.5652278159        0.0576477392        4.0288025053
 H          6.6448924926       -0.6213116127        2.8213040266
 H          4.4278250339       -0.3165506700        1.8661576802
 H          4.5439288387       -0.9063415611       -0.7961438748
 H          3.1450941238       -2.8937922382       -1.2251654514
 H         -0.7513598840       -3.8099200747       -3.0669793834
 H         -0.4260470134       -6.0815082472       -3.9711155607
 H          1.0537088800       -7.6781427774       -2.8023123036
 H          2.5263313361       -8.2218478596       -0.9325169658
 H          3.5858302245       -7.6107249450        1.2103820753
 H          3.1680360307       -5.3851468237        2.2000346135
 H          1.7590834700       -3.7564899252        1.0361979645
 H         -5.1574220480        2.2998872303        1.4559672565
 H         -5.0150045922        4.6622316615        0.8880606099
