  104
 
 C         12.5619575332       -5.4578475668       -0.5580200586
 O         12.8006649764       -4.2568785123        0.1464326247
 C         11.8953340034       -3.2511798044        0.0555457872
 C         10.7238200851       -3.2904440309       -0.6990137990
 C          9.8724750796       -2.2033433946       -0.7170586357
 C         10.1623554148       -1.0517362046        0.0150972982
 N          9.2945332902        0.0423704010       -0.0047461528
 C          9.8091567493        1.3405433376        0.0242925886
 C          9.1532944022        2.3508207168        0.7284088476
 C          9.6539567559        3.6373463076        0.7575464028
 C         10.8328916445        3.9464306623        0.0808148424
 O         11.4136496683        5.1712964747        0.0421814631
 C         10.7909435338        6.2454102094        0.7161310255
 C         11.4945830747        2.9332108242       -0.6231767038
 C         10.9933257226        1.6539150926       -0.6527251306
 C          7.9150550633       -0.1595767278       -0.0471667465
 C          7.3298324681       -1.2315769311        0.6335528349
 C          5.9666909177       -1.4227298032        0.5933218888
 C          5.1336193315       -0.5542239535       -0.1185166924
 C          3.6836757315       -0.7483352038       -0.1385959977
 C          3.1237438152       -2.0421641124       -0.1600311775
 C          1.7654105270       -2.2120547733       -0.1551609017
 C          0.8861812622       -1.1172202655       -0.1248145457
 C          1.4353409335        0.1846548020       -0.1021980107
 C          2.8245762860        0.3362446578       -0.1163208133
 C          0.5981749301        1.3727585410       -0.0625839303
 O          1.0865297964        2.5281536258       -0.0494369562
 C         -0.8314455521        1.1396674190       -0.0452996562
 C         -1.7098589645        2.2350287596       -0.0140207559
 C         -3.0680613483        2.0652905324        0.0109103767
 C         -3.6269638161        0.7712292098        0.0123926355
 C         -5.0773006525        0.5786135449        0.0353209789
 C         -5.6519523254       -0.4630873774        0.7695898550
 C         -7.0156329701       -0.6504955048        0.7929105013
 C         -7.8604792729        0.1965292828        0.0682060697
 N         -9.2414283110        0.0043409525        0.0822592596
 C        -10.1029739518        1.1031896694        0.0383630248
 C         -9.7818547064        2.2892568779        0.7084242848
 C        -10.6332797434        3.3670631145        0.6623628065
 C        -11.8361331741        3.3009611708       -0.0510069831
 O        -12.6004782131        4.4211050942       -0.0295533721
 C        -13.8321404271        4.4219873889       -0.7216711078
 C        -12.1598686176        2.1203701299       -0.7177270325
 C        -11.3018229221        1.0392802972       -0.6718608583
 C         -9.7675343407       -1.2885615262        0.1409627291
 C         -9.1502421968       -2.3408319203       -0.5358284876
 C         -9.6634514939       -3.6215822461       -0.4779539176
 C        -10.8166914522       -3.8822327092        0.2604485431
 O        -11.4057393204       -5.0973673658        0.3874477338
 C        -10.8141922893       -6.2139707035       -0.2441304327
 C        -11.4405004276       -2.8267383595        0.9362088805
 C        -10.9263270450       -1.5534614497        0.8796440165
 C         -7.2929761191        1.2385545600       -0.6717111002
 C         -5.9285549193        1.4248549074       -0.6811048480
 C         -2.7693364184       -0.3139382138       -0.0203263901
 C         -1.3803677781       -0.1623872424       -0.0590001693
 C         -0.5433171569       -1.3502404608       -0.1108496879
 O         -1.0317460864       -2.5055893647       -0.1325471180
 C          5.7271478143        0.5141899914       -0.7979571240
 C          7.0896609355        0.7092086760       -0.7682898625
 C         11.3401379831       -1.0150038704        0.7702075824
 C         12.1898064417       -2.0950434434        0.7880056849
 H         12.5239312420       -5.2853526097       -1.6375011835
 H         13.4057852925       -6.1047740956       -0.3244947543
 H         11.6350570822       -5.9358389286       -0.2282481849
 H         10.4686204609       -4.1593183915       -1.2836660340
 H          8.9752340392       -2.2402858957       -1.3163551326
 H          8.2469097696        2.1213875562        1.2683420025
 H          9.1212993346        4.3886645101        1.3176698407
 H         10.7340188827        6.0606396754        1.7927679656
 H          9.7886731724        6.4361767789        0.3219663132
 H         11.4238431784        7.1115250859        0.5305461180
 H         12.4012873320        3.1850274711       -1.1500508825
 H         11.5059917517        0.8869964911       -1.2127716773
 H          7.9527929377       -1.8979937245        1.2114362585
 H          5.5297865074       -2.2375620251        1.1504448036
 H          3.7728285032       -2.9040355491       -0.2080535937
 H          1.3238088030       -3.1991694382       -0.1792368359
 H          3.2038303237        1.3482081544       -0.0750140327
 H         -1.2677881050        3.2221400563       -0.0025539700
 H         -3.7175806852        2.9268264120        0.0599682959
 H         -5.0149172743       -1.1131580144        1.3503807464
 H         -7.4417292394       -1.4444688993        1.3880680804
 H         -8.8647768945        2.3500497732        1.2742546574
 H        -10.3962256425        4.2817773141        1.1822981081
 H        -14.2594971069        5.4090288770       -0.5535003262
 H        -13.6859364311        4.2674585769       -1.7946230416
 H        -14.5107011640        3.6598662919       -0.3279852594
 H        -13.0728835460        2.0354582968       -1.2842605777
 H        -11.5560905200        0.1356425913       -1.2048768042
 H         -8.2640135463       -2.1497610205       -1.1221992062
 H         -9.1606702842       -4.4068350869       -1.0188628977
 H        -10.7947296751       -6.0932090133       -1.3311144915
 H         -9.7995466938       -6.3893271467        0.1247936779
 H        -11.4452401389       -7.0625124281        0.0144881079
 H        -12.3272982245       -3.0410016855        1.5114026301
 H        -11.4074812189       -0.7529597361        1.4204501258
 H         -7.9309330541        1.8872380045       -1.2532894889
 H         -5.5059250184        2.2182478660       -1.2788441487
 H         -3.1507948049       -1.3256115924       -0.0482073901
 H          5.1068571865        1.1819155637       -1.3767147868
 H          7.5308231206        1.5272025911       -1.3182569185
 H         11.5724290151       -0.1368326526        1.3528277811
 H         13.0947252836       -2.0778427730        1.3745087005
