  77
 
 C          4.2343877993        3.3262629945        0.4537794848
 C          4.7940544781        2.1911459046        1.3178865027
 C          4.2602056938        2.2916420220        2.7500812902
 C          6.3049132338        2.1855468435        1.2947238687
 C          7.1803053941        3.1542476190        1.7339227829
 C          8.5455288214        2.9314810256        1.6069166984
 C          9.0256809326        1.7557326759        1.0473351974
 C          8.1546779206        0.7766139554        0.6028725208
 C          6.7897213466        0.9945740486        0.7283220055
 C          5.6634219180        0.1646920779        0.3560851458
 C          5.6350821920       -1.0938712760       -0.2270649516
 C          4.3922917558       -1.6456570376       -0.4859865506
 C          3.9717385695       -2.8948821886       -1.0640646024
 C          4.6520641382       -3.9900545498       -1.5723769981
 C          3.9178708776       -5.0457027591       -2.0852067392
 C          2.5269681896       -5.0097797525       -2.1070288568
 C          1.8259439564       -3.9269335097       -1.6064533413
 C          2.5578856123       -2.8777437639       -1.0712728550
 N          2.1151377833       -1.6882371852       -0.5247582292
 C          0.7738032644       -1.3034785969       -0.4049299778
 C         -0.1487563197       -2.1335364899        0.2396466245
 C         -1.4645556835       -1.7687344051        0.3560322196
 C         -1.9269604607       -0.5374914121       -0.1690578582
 C         -3.2857624246       -0.1523861562       -0.0478635250
 N         -3.7001198655        1.0386721567       -0.5504051692
 C         -4.9542229513        1.3759779141       -0.4226674969
 C         -5.4071771050        2.6595063139       -0.9425450585
 C         -4.5108096120        3.5190572685       -1.5788977810
 C         -4.9455445048        4.7343496414       -2.0671627997
 C         -6.2744120852        5.1071520284       -1.9276073760
 C         -7.1697107818        4.2575334732       -1.2962142679
 C         -6.7423831809        3.0399215228       -0.8053329487
 N         -5.8592677008        0.5749537132        0.1753803277
 C         -5.4192103556       -0.6056091269        0.6580288792
 C         -6.3831614637       -1.4882859825        1.3010465639
 C         -5.9754858080       -2.7149694973        1.8269895717
 C         -6.8938223394       -3.5482312016        2.4322327089
 C         -8.2260086123       -3.1713185299        2.5205139114
 C         -8.6372865722       -1.9540852141        1.9997030505
 C         -7.7243201859       -1.1147659235        1.3930122630
 N         -4.1703779000       -0.9747582006        0.5693100857
 C         -1.0018959741        0.2965414081       -0.8215564775
 C          0.3229065544       -0.0759440771       -0.9462737364
 C          1.2044709947        0.7625793707       -1.6631171434
 N          1.9017963767        1.4524114941       -2.2590410471
 C          3.2040089867       -0.9370598655       -0.1638159330
 C          3.2357025159        0.3089541345        0.4626509405
 C          4.4744651848        0.8489955539        0.7008801570
 H          4.6098980207        3.2437379187       -0.5633827650
 H          3.1490309071        3.2758054342        0.4210866593
 H          4.5293498202        4.2909820880        0.8596912158
 H          3.1747415448        2.2286728503        2.7532249653
 H          4.5541608094        3.2387076774        3.1960413082
 H          4.6581738078        1.4823210905        3.3589349724
 H          6.8191265751        4.0741634603        2.1699063445
 H          9.2427182011        3.6830450733        1.9471418284
 H         10.0916718059        1.6055764197        0.9580129729
 H          8.5298094397       -0.1369921500        0.1665586297
 H          6.5429065519       -1.6225133879       -0.4728394333
 H          5.7310797718       -4.0150447023       -1.5709577331
 H          4.4298632871       -5.9086060759       -2.4837437851
 H          1.9825759225       -5.8421175041       -2.5270874478
 H          0.7476497682       -3.8972451170       -1.6414591789
 H          0.2015809259       -3.0625364080        0.6658626156
 H         -2.1729018653       -2.4070711727        0.8591774891
 H         -3.4803211732        3.2156370072       -1.6804213894
 H         -4.2487235616        5.3968699552       -2.5594124657
 H         -6.6113378281        6.0591139638       -2.3108286925
 H         -8.2044059928        4.5485369842       -1.1878220446
 H         -7.4272211592        2.3680989204       -0.3111761217
 H         -4.9360157025       -2.9940658333        1.7502465538
 H         -6.5746830966       -4.4970826443        2.8383042030
 H         -8.9423054441       -3.8261299495        2.9945840114
 H         -9.6748695743       -1.6613248061        2.0684106973
 H         -8.0295468534       -0.1646698042        0.9823909503
 H         -1.3441285089        1.2309534970       -1.2393047782
 H          2.3282389615        0.8206342693        0.7435564855
