  86
 
 C         13.0287011929        0.1982118897       -0.2989758741
 C         12.2268260588       -1.0970281056       -0.1029802936
 C         12.7378212887       -1.7890801370        1.1642786983
 C         12.4619950889       -2.0406723898       -1.2918143937
 C         10.7456248228       -0.7552987401       -0.0280228619
 C         10.1327349897       -0.1202409556       -1.1062376758
 C          8.7911422018        0.2066319398       -1.0879179324
 C          8.0254607015       -0.0940461680        0.0264506458
 N          6.6321327297        0.2425378463        0.0537452302
 C          6.3083167193        1.5635542522        0.3069151221
 O          7.1971325940        2.3889158319        0.5092162358
 C          4.8898261525        1.8901633514        0.3216909329
 C          4.5034820436        3.2105280906        0.5542058150
 C          3.1643457913        3.5405232413        0.5509794678
 C          2.1984650223        2.5681328408        0.3358307919
 C          2.5333895585        1.2270483392        0.1245007839
 C          1.5536339211        0.1819099219       -0.0917502326
 C          0.1756282029        0.4383885917        0.0171137965
 C         -0.8581667495       -0.4277495401       -0.2958137699
 C         -2.2372748592       -0.1671220940       -0.1339257672
 C         -2.7546193388        1.0109960521        0.4844453268
 C         -4.0887811139        1.2136684785        0.6210366620
 C         -5.0357139090        0.2629352180        0.1471677175
 C         -6.4066470287        0.4598927767        0.2720222199
 C         -7.3167601872       -0.4921997880       -0.1865336383
 N         -8.6777816891       -0.2862455898       -0.0625206882
 C         -9.2095211539        1.0107966212       -0.0952736495
 C        -10.2609107591        1.3590543480        0.7541367871
 C        -10.7885787282        2.6351150091        0.7143083635
 C        -10.2794286752        3.5773788216       -0.1663682346
 C         -9.2366416201        3.2343651491       -1.0135017334
 C         -8.7027074613        1.9607067251       -0.9841312503
 C         -9.5506902319       -1.3707109050        0.1072012473
 C         -9.1953557027       -2.4391075419        0.9322419363
 C        -10.0636260840       -3.5002522295        1.1008829727
 C        -11.2917424939       -3.5100796606        0.4572507923
 C        -11.6493319743       -2.4484088755       -0.3598771088
 C        -10.7882315787       -1.3828864513       -0.5376997944
 C         -6.8265510052       -1.6768815846       -0.7898898389
 C         -5.4885530495       -1.8821518577       -0.9296086142
 C         -4.5418401347       -0.9290145032       -0.4660618412
 C         -3.1715363493       -1.1181479773       -0.5896585635
 C          2.0334615439       -1.1254308979       -0.3774209961
 C          3.3630348150       -1.4262960673       -0.4054824794
 C          4.3311623884       -0.4334345503       -0.1587438077
 C          3.9184640572        0.8915817664        0.0994932513
 C          5.7307110965       -0.7894332447       -0.1864517352
 O          6.1470469145       -1.9270309706       -0.4115534130
 C          8.6116155939       -0.7212403902        1.1105638473
 C          9.9566065930       -1.0476958617        1.0779806325
 H         14.0936544327       -0.0224317282       -0.3262873715
 H         12.8372106321        0.8859319480        0.5222870252
 H         12.7587741209        0.6947297327       -1.2266835023
 H         12.6162750332       -1.1491833606        2.0351821042
 H         12.2154325552       -2.7276875446        1.3340173829
 H         13.7977148842       -2.0087007432        1.0529159632
 H         13.5140469561       -2.3113293997       -1.3507331764
 H         12.1759163374       -1.5744537906       -2.2303344331
 H         11.8756514617       -2.9494231374       -1.1712669306
 H         10.7048577803        0.1279377782       -1.9871704863
 H          8.3330142676        0.6994927267       -1.9338678186
 H          5.2739849035        3.9479014819        0.7225831029
 H          2.8623118136        4.5643093826        0.7151199671
 H          1.1670168282        2.8809780060        0.3265145358
 H         -0.1038834678        1.4152246661        0.3783701801
 H         -0.6198680657       -1.3877208383       -0.7310159478
 H         -2.0673875387        1.7517757840        0.8614875041
 H         -4.4596532917        2.1118038057        1.0941034506
 H         -6.7676909877        1.3551124871        0.7570586805
 H        -10.6488884071        0.6292187906        1.4489559572
 H        -11.5971826597        2.8978104730        1.3797450367
 H        -10.6940387220        4.5735050252       -0.1936084605
 H         -8.8420667775        3.9607735421       -1.7080646576
 H         -7.9027406243        1.6883959018       -1.6566023687
 H         -8.2463391209       -2.4215425020        1.4474688819
 H         -9.7836872919       -4.3196387168        1.7457863964
 H        -11.9676014790       -4.3405374025        0.5929275041
 H        -12.6021924173       -2.4533921381       -0.8674811151
 H        -11.0606986294       -0.5614679625       -1.1834917247
 H         -7.5324834452       -2.4027318881       -1.1644252679
 H         -5.1242675915       -2.7770593540       -1.4119701596
 H         -2.8083683354       -2.0252985248       -1.0519314836
 H          1.3218168998       -1.9167481574       -0.5484424844
 H          3.7137728000       -2.4274741442       -0.6085084591
 H          8.0127085637       -0.9569409660        1.9790453995
 H         10.3768224086       -1.5369694061        1.9411899527
