  154
 
 C          3.8976522279       -1.4624434108       -4.9939797191
 C          3.0502370021       -1.3835220023       -3.7165969471
 C          3.2973447606       -2.6243707444       -2.8461790208
 C          1.5704578860       -1.3718390260       -4.1097827247
 C          3.4483818238       -0.1472353639       -2.9276833176
 C          4.7244513517       -0.1048868736       -2.3511743941
 C          5.1374762696        0.9253064068       -1.5326307892
 C          4.2363488113        1.9493303916       -1.2850561476
 C          2.9885969212        1.9882145401       -1.9382739781
 C          2.5936455000        0.9324525446       -2.7446767208
 C          2.3403887263        3.1953957366       -1.4916131838
 C          1.1096105176        3.7673559689       -1.7693180100
 C          0.7441535249        4.9525951768       -1.1432970362
 C         -0.5748061325        5.6514892004       -1.4360545092
 C         -1.5451974843        4.7657571637       -2.2239610956
 C         -1.2637593611        6.0592830384       -0.1264188590
 C         -0.2733844616        6.9085417544       -2.2662944144
 C          1.6387938033        5.5371780253       -0.2383848583
 C          2.8625796371        4.9776929042        0.0729440746
 C          3.2177199259        3.8017084008       -0.5662463433
 N          4.3589536340        3.0345896748       -0.4403376652
 C          5.2735253584        3.0838138770        0.6211406012
 C          6.0719672773        4.2021419651        0.8208517555
 C          7.0003567598        4.2182131580        1.8472178798
 C          7.1551065579        3.1111587461        2.6655661501
 C          6.3622657809        1.9928155141        2.4750663365
 C          5.4018395215        1.9771260550        1.4752411224
 C          4.5105167745        0.8157570833        1.2884893055
 N          5.0700098681       -0.3929077705        1.2946399358
 C          4.2331471298       -1.3886354343        0.9434973922
 C          4.7761141046       -2.7438270169        0.8816215427
 C          6.1477505884       -2.9607463196        0.9922751330
 C          6.6524757787       -4.2443209713        0.9121160427
 C          5.7981583697       -5.3194120730        0.7219424221
 C          4.4314914179       -5.1095259054        0.6160229867
 C          3.9215961054       -3.8297498176        0.6972405896
 N          2.9750134588       -1.2152169043        0.6145193208
 C          2.4586319696        0.0240724375        0.7036633740
 C          1.0988662320        0.2518545439        0.3647627598
 C          0.5011500271        1.5117595746        0.5820078429
 C         -0.8196651376        1.7118268999        0.3048367505
 C         -1.6195244488        0.6636778536       -0.1990358417
 C         -3.0244611422        0.8168424359       -0.3258334425
 N         -3.5990211615        2.0282608247       -0.1703326160
 C         -4.9094973997        2.0980460305       -0.1966888067
 C         -5.5460202529        3.4117222987       -0.0925278844
 C         -6.9351973827        3.5213579156       -0.1105406829
 C         -7.5327341872        4.7631271747       -0.0161795817
 C         -6.7538172140        5.9038468889        0.0994871805
 C         -5.3715651125        5.7987968265        0.1220347879
 C         -4.7673914016        4.5609967989        0.0263116228
 N         -5.7211893043        1.0318721580       -0.2864734558
 C         -5.0913115076       -0.1416167232       -0.4246645860
 C         -5.9435924171       -1.3358391519       -0.4319622232
 C         -7.2715435607       -1.2133022483       -0.8334161527
 C         -8.1074801033       -2.3109921483       -0.8722104217
 C         -7.6278370893       -3.5549945228       -0.4909103437
 C         -6.3201801640       -3.6900275394       -0.0648026392
 C         -5.4655886812       -2.5912484325       -0.0269076253
 N         -4.1519140721       -2.7800535059        0.4161481764
 C         -3.2759764945       -3.6999872752       -0.1170482409
 C         -3.4455827302       -4.5904648826       -1.1653314670
 C         -2.3835529568       -5.4079277362       -1.5060906895
 C         -1.1514124363       -5.3557219202       -0.8478674470
 C          0.0165863975       -6.2478818708       -1.2405750852
 C          1.1208721775       -5.3607439494       -1.8309260944
 C          0.5456078942       -6.9822783714       -0.0002326363
 C         -0.3627375962       -7.3028428696       -2.2839512281
 C         -0.9828744708       -4.4298376400        0.1784245883
 C         -2.0332299028       -3.6107369079        0.5502568689
 C         -2.1802608017       -2.5756994300        1.5409619820
 C         -1.3044465686       -2.0181415543        2.4586865062
 C         -1.7401765559       -0.9956571816        3.2886815543
 C         -0.8219098341       -0.3166217505        4.2923069519
 C          0.6310364779       -0.7831788556        4.1643137850
 C         -0.8472488533        1.2003044868        4.0608942700
 C         -1.3137150662       -0.6376316339        5.7114053023
 C         -3.0789077559       -0.5909639530        3.2060618822
 C         -3.9708009797       -1.1288975090        2.3002317565
 C         -3.5040898907       -2.1044032740        1.4330447171
 N         -3.7927435273       -0.2793102176       -0.5187808757
 C         -1.0026756384       -0.5735448046       -0.4842472735
 C          0.3153935575       -0.7757691660       -0.2022277667
 N          3.2398999571        1.0629200161        1.0805787005
 H          3.6373293200       -2.3529819774       -5.5623550057
 H          4.9580612142       -1.5034416327       -4.7589723974
 H          3.7208600733       -0.5889865645       -5.6184668656
 H          2.8004695036       -2.5069823263       -1.8864626114
 H          4.3552634035       -2.7845368563       -2.6581600773
 H          2.9069192482       -3.5117815873       -3.3383083093
 H          1.3228839020       -2.3016624632       -4.6184480549
 H          0.9375330547       -1.2854044803       -3.2293089085
 H          1.3494390384       -0.5528604567       -4.7903598684
 H          5.4143077753       -0.9157731517       -2.5263403251
 H          6.1171032769        0.9149933393       -1.0776336914
 H          1.6133516473        0.9578953013       -3.1898127213
 H          0.4525280865        3.2705798032       -2.4626657821
 H         -1.1576083736        4.5418034053       -3.2149868930
 H         -2.4929498601        5.2860589485       -2.3506481973
 H         -1.7382623504        3.8325952424       -1.6997194508
 H         -0.6975211110        6.8140806904        0.4117831097
 H         -2.2461385136        6.4737064993       -0.3413804737
 H         -1.3825715078        5.1951093893        0.5233267422
 H          0.3896988205        7.5811541560       -1.7274961542
 H         -1.1952680144        7.4401109133       -2.4930937755
 H          0.2077138366        6.6351930035       -3.2031721567
 H          1.3732464456        6.4627199152        0.2480355307
 H          3.5150047872        5.4429938204        0.7966192300
 H          5.9729837087        5.0464824891        0.1547109023
 H          7.6160227626        5.0926414050        1.9968877736
 H          7.8919661772        3.1210283358        3.4543924609
 H          6.4643044715        1.1257133538        3.1094073431
 H          6.7964260182       -2.1107884164        1.1362969197
 H          7.7166873667       -4.4109660988        0.9966108030
 H          6.1971215413       -6.3214174759        0.6583840775
 H          3.7660636633       -5.9481078667        0.4712521616
 H          2.8610388603       -3.6443577539        0.6263077077
 H          1.1105657904        2.3014185019        0.9956137934
 H         -1.2905390591        2.6626741276        0.5039670526
 H         -7.5261382964        2.6230320769       -0.1963272933
 H         -8.6099145711        4.8455471277       -0.0312513403
 H         -7.2236558159        6.8738992234        0.1738439463
 H         -4.7670133524        6.6895022680        0.2179232978
 H         -3.6948435718        4.4586714107        0.0420905685
 H         -7.6220106991       -0.2364126493       -1.1273803920
 H         -9.1305120019       -2.2010078271       -1.1983923884
 H         -8.2757300240       -4.4184702828       -0.5130526046
 H         -5.9495008695       -4.6494244122        0.2657028429
 H         -4.3761191118       -4.6453200936       -1.7103128858
 H         -2.5307941042       -6.1018941246       -2.3167513803
 H          1.4615775040       -4.6248747120       -1.1092625671
 H          0.7457859460       -4.8311041608       -2.7040919871
 H          1.9744849163       -5.9655919279       -2.1300245038
 H          0.9235839258       -6.2893585368        0.7457955976
 H          1.3559009269       -7.6519112646       -0.2818905875
 H         -0.2468424293       -7.5739213390        0.4536187858
 H         -1.1674026702       -7.9391141559       -1.9222572632
 H          0.4996249522       -7.9341341228       -2.4893714838
 H         -0.6655973833       -6.8408490183       -3.2205690542
 H         -0.0404584745       -4.3354396557        0.6944739682
 H         -0.2915332016       -2.3809703249        2.4958145724
 H          0.7287288243       -1.8424482947        4.3915507142
 H          1.2515937144       -0.2331176565        4.8692551349
 H          1.0105104011       -0.5941729049        3.1624008900
 H         -0.1620798977        1.6931278842        4.7477948795
 H         -1.8389890826        1.6147566329        4.2181683253
 H         -0.5392310168        1.4241403623        3.0420535555
 H         -2.3275689387       -0.2783038208        5.8667299083
 H         -1.3038521597       -1.7127565996        5.8795786929
 H         -0.6665210306       -0.1665942267        6.4483346523
 H         -3.4412339765        0.1791194982        3.8697470634
 H         -4.9942983148       -0.7843300850        2.2613356528
 H         -1.6033517201       -1.3535597580       -0.9268979741
 H          0.7862066428       -1.7257061580       -0.4054156038
