  130
 
 O         -7.7408421760       -0.1082699102       -0.9340915778
 P         -7.5547666064       -0.1812462834        0.5187794407
 C         -9.1403947691       -0.2649835826        1.4129882548
 C        -10.2912579898       -0.3229051269        0.6408350104
 C        -11.5341975050       -0.3749351799        1.2465033339
 C        -11.6269466876       -0.3654113819        2.6282237702
 C        -10.4782869612       -0.3023207479        3.4023075175
 C         -9.2355274522       -0.2505041902        2.7988529008
 C         -6.7011584134        1.2593476952        1.2365957382
 C         -6.6967176078        2.4225523271        0.4818510640
 C         -6.0594875371        3.5559793746        0.9532082024
 C         -5.4320319340        3.5286484772        2.1876387938
 C         -5.4428700065        2.3699185741        2.9478377597
 C         -6.0749256833        1.2340036610        2.4751021218
 C         -6.6054214499       -1.6160782850        1.1242604712
 C         -7.1427464773       -2.6912944107        1.8084079828
 C         -6.3172444758       -3.7126214982        2.2480325170
 C         -4.9547148617       -3.6502275780        2.0104918831
 C         -4.4058096688       -2.5901948254        1.3103171502
 C         -5.2383447484       -1.5802541507        0.8501178705
 O         -4.8291638062       -0.5348155293        0.0820702465
 C         -3.4937265181       -0.1865005255        0.0918380721
 C         -2.8949084363        0.2706753480        1.2592599212
 C         -1.5766325485        0.6808484597        1.2520733363
 C         -0.8192715363        0.6335977445        0.0824793465
 C          0.5905657893        1.0467387209        0.0776639845
 C          1.0159628384        2.1558745726        0.8034969146
 C          2.3447889860        2.5344417767        0.8049462458
 C          3.2896763734        1.8052729948        0.0950071298
 C          4.7401085726        2.2380286085        0.0488198214
 C          5.6968888523        1.0635932657        0.0582210155
 C          5.4313550319       -0.0480913095        0.8507738905
 C          6.3252112496       -1.0977704703        0.9205557864
 C          7.5096015233       -1.0570623923        0.1910027845
 N          8.4138546284       -2.1258789633        0.2515833277
 C          9.7663830280       -2.0274728988        0.5096039340
 C         10.5298956267       -0.9084137932        0.8098389053
 C         11.8767098604       -1.0940249388        1.0558329822
 C         12.4567595752       -2.3601006596        1.0145982862
 C         11.6976598734       -3.4798504439        0.7399715096
 C         10.3413013994       -3.3191463978        0.4894118671
 C          9.2750458002       -4.2357980905        0.1981859491
 C          9.2175039594       -5.6135230658        0.0338036315
 C          8.0022734281       -6.1932152594       -0.2705738155
 C          6.8566198838       -5.4157403815       -0.4254702836
 C          6.8884454520       -4.0436699292       -0.2665442034
 C          8.1024105311       -3.4576189988        0.0624144824
 C          7.7847537798        0.0560095991       -0.5966010491
 C          6.8898426934        1.1072611392       -0.6518200491
 C          4.9142317259        3.1510490369       -1.1507651428
 C          4.6835266455        2.8769044654       -2.4817148991
 C          4.8993818343        3.8818745191       -3.4151018538
 C          5.3335273412        5.1379415402       -3.0198874810
 C          5.5603814241        5.4211769530       -1.6828146271
 C          5.3470889642        4.4220741118       -0.7475491286
 C          5.4968379370        4.4239118396        0.6985805481
 C          5.9095972438        5.4207630946        1.5671390755
 C          5.9611616489        5.1405850943        2.9229960336
 C          5.6099006815        3.8878805988        3.4023854033
 C          5.1966008060        2.8847437114        2.5359729648
 C          5.1366037950        3.1601130605        1.1867252395
 C          2.8650689187        0.7048574823       -0.6424407243
 C          1.5366875112        0.3308903056       -0.6526460154
 C         -1.4287599836        0.1614622148       -1.0751386660
 C         -2.7527725643       -0.2459468122       -1.0846001997
 P         -3.3607041741       -0.9319584831       -2.6697633677
 O         -2.2385338289       -1.3918615854       -3.4989066814
 C         -4.3431214365        0.3799214974       -3.4507300893
 C         -5.2478432133        1.1696840733       -2.7539853799
 C         -5.9585704642        2.1436339993       -3.4311846072
 C         -5.7665663532        2.3331284299       -4.7907040881
 C         -4.8568267686        1.5496503000       -5.4820154102
 C         -4.1436821365        0.5731360336       -4.8108478771
 C         -4.4851140671       -2.2861970972       -2.2002034639
 C         -5.8660116042       -2.2173425409       -2.2912755944
 C         -6.6289492488       -3.2976167071       -1.8834718025
 C         -6.0187391110       -4.4435768811       -1.4014412213
 C         -4.6368485977       -4.5203703172       -1.3348859938
 C         -3.8706062089       -3.4407133851       -1.7324266042
 H        -10.1902111774       -0.3264823202       -0.4348306191
 H        -12.4292334229       -0.4222038781        0.6436636324
 H        -12.5951302278       -0.4056626074        3.1054648016
 H        -10.5539857667       -0.2928320692        4.4800634950
 H         -8.3409829994       -0.2007986245        3.4019374716
 H         -7.1931749108        2.4147068281       -0.4777268375
 H         -6.0490046906        4.4588646115        0.3603312890
 H         -4.9309048299        4.4103857944        2.5592004801
 H         -4.9518999994        2.3520749215        3.9107032230
 H         -6.0667001191        0.3225060160        3.0583087469
 H         -8.2054873935       -2.7206103099        2.0026799997
 H         -6.7355908452       -4.5515289197        2.7829907496
 H         -4.3085489676       -4.4393246137        2.3645414744
 H         -3.3450762432       -2.5503541354        1.1104253172
 H         -3.4746767117        0.2987566013        2.1702793239
 H         -1.1221445259        1.0184514712        2.1716225849
 H          0.2950745027        2.7429538324        1.3536354131
 H          2.6500446254        3.4056046975        1.3659667519
 H          4.5129485117       -0.0958116966        1.4175627750
 H          6.1168915515       -1.9489601574        1.5515370623
 H         10.0862035783        0.0745958487        0.8616386677
 H         12.4931683495       -0.2382241473        1.2889690592
 H         13.5139065564       -2.4626702337        1.2098897719
 H         12.1435910956       -4.4629500504        0.7233887715
 H         10.1087194683       -6.2138426524        0.1384439767
 H          7.9352674157       -7.2631715951       -0.4005820008
 H          5.9229757088       -5.8958752051       -0.6793109504
 H          5.9985727858       -3.4483582100       -0.4056939633
 H          8.6962083827        0.0881255973       -1.1744475553
 H          7.1186268396        1.9668256522       -1.2642802831
 H          4.3440134602        1.9018259110       -2.7972471557
 H          4.7259954820        3.6818439516       -4.4621269911
 H          5.4948645930        5.9044141126       -3.7637964556
 H          5.8958557398        6.4009517633       -1.3769122312
 H          6.1866285702        6.3962006833        1.1959398135
 H          6.2803933941        5.9057168995        3.6155779637
 H          5.6590480014        3.6890581372        4.4629314990
 H          4.9257883871        1.9107007047        2.9156912690
 H          3.5845064460        0.1269042789       -1.2042024556
 H          1.2298613500       -0.5372902932       -1.2164100437
 H         -0.8787401497        0.0965768043       -2.0030429917
 H         -5.4032930701        1.0118312395       -1.6985671917
 H         -6.6704748910        2.7573765529       -2.8990954998
 H         -6.3274841960        3.0951079858       -5.3126675251
 H         -4.7059351597        1.6998146677       -6.5412309401
 H         -3.4235619798       -0.0494034425       -5.3224406826
 H         -6.3440832750       -1.3212734080       -2.6543016355
 H         -7.7057195838       -3.2383544643       -1.9389408664
 H         -6.6202602715       -5.2819880873       -1.0810733249
 H         -4.1602612271       -5.4184625493       -0.9689452760
 H         -2.7897557573       -3.4783885868       -1.6955134290
