  94
 
 N          1.9060400155       10.0983081347       -0.1414767639
 C          1.3780017534        9.0745062357       -0.1015445791
 C          0.7057847941        7.8455297639       -0.0505061841
 N          1.3920553132        6.7006036280       -0.0997546315
 C          0.7063494714        5.5404272418       -0.0483273011
 C          1.4157652954        4.3053876709       -0.0867931763
 C          2.8212382371        4.3086643623       -0.1642899149
 C          3.5321227377        3.1413347562       -0.1799930068
 C          2.8634951432        1.9037732547       -0.1264351233
 C          3.6103929181        0.6446679581       -0.1225735421
 C          4.8196061421        0.5280359558        0.5686221830
 C          5.5086280683       -0.6637643571        0.6041241646
 C          5.0148380736       -1.7888380334       -0.0644189381
 N          5.7006119076       -3.0002134202       -0.0200001095
 C          7.1001137419       -3.0128980926        0.0169526914
 C          7.7763611866       -3.9394578812        0.8125166038
 C          9.1572766387       -3.9488090051        0.8433785080
 C          9.8820618579       -3.0395209520        0.0881648665
 C          9.2144252255       -2.1177178457       -0.7036677719
 C          7.8338241444       -2.1007675098       -0.7438404227
 C          4.9958985376       -4.2088232086       -0.0023670751
 C          3.7914660917       -4.3163819359        0.6963256706
 C          3.0988983871       -5.5113544283        0.7053787992
 C          3.5946698046       -6.6151892937        0.0284832422
 C          4.7932918864       -6.5152585417       -0.6612242918
 C          5.4913549549       -5.3235258099       -0.6820298877
 C          3.8155556299       -1.6739797305       -0.7750397389
 C          3.1285585213       -0.4812692534       -0.7970206667
 C          1.4800311929        1.8951199653       -0.0613687429
 C          0.7215330853        3.0696119623       -0.0385071976
 C         -0.7200022273        3.0696958790        0.0400387355
 C         -1.4786452228        1.8952941558        0.0628768715
 C         -2.8621042370        1.9041129658        0.1280698006
 C         -3.6092389334        0.6451490337        0.1241657841
 C         -3.1273654832       -0.4811386911        0.7980005607
 C         -3.8146772088       -1.6736768450        0.7759587233
 C         -5.0143692737       -1.7879590575        0.0659585118
 N         -5.7006129048       -2.9990942672        0.0215253258
 C         -7.1001751644       -3.0111072062       -0.0143437934
 C         -7.8328150155       -2.0992155722        0.7477534432
 C         -9.2134599261       -2.1154803587        0.7087116608
 C         -9.8821767466       -3.0363407971       -0.0833045620
 C         -9.1584465278       -3.9453528780       -0.8398599414
 C         -7.7774982815       -3.9366972557       -0.8101064688
 C         -4.9964445190       -4.2079874401        0.0026787261
 C         -5.4920854209       -5.3229713636        0.6817523121
 C         -4.7946294954       -6.5150353548        0.6596586589
 C         -3.5964073618       -6.6150272106       -0.0307377344
 C         -3.1004333108       -5.5109068057       -0.7070166972
 C         -3.7924044479       -4.3155959119       -0.6966810675
 C         -5.5082068268       -0.6625455577       -0.6019572934
 C         -4.8188247178        0.5290443175       -0.5664717229
 C         -3.5305554694        3.1417690760        0.1817702291
 C         -2.8195344663        4.3090106075        0.1659997030
 C         -1.4140708593        4.3055566504        0.0883849764
 C         -0.7045125059        5.5405074315        0.0498734955
 N         -1.3900928375        6.7007535853        0.1012540710
 C         -0.7036857412        7.8456131034        0.0520008482
 C         -1.3757690892        9.0746471646        0.1027704013
 N         -1.9036453074       10.0985269812        0.1433177138
 H          3.3170536741        5.2669775943       -0.2096531659
 H          4.6085799879        3.1666977563       -0.2575288573
 H          5.2020179725        1.3756116663        1.1170080030
 H          6.4258216080       -0.7404351655        1.1689804819
 H          7.2118620192       -4.6389016878        1.4112324116
 H          9.6711327729       -4.6649386179        1.4672263579
 H         10.9610410394       -3.0491254196        0.1160283815
 H          9.7728838661       -1.4118316250       -1.3003305623
 H          7.3141177573       -1.3918302092       -1.3713505428
 H          3.4135199041       -3.4628268589        1.2392206947
 H          2.1708071329       -5.5836404691        1.2526662561
 H          3.0515626486       -7.5479022805        0.0395704869
 H          5.1834126749       -7.3691453475       -1.1948519871
 H          6.4170533662       -5.2434553977       -1.2323509516
 H          3.4386610899       -2.5253184109       -1.3220543675
 H          2.2189865801       -0.4069589411       -1.3735726326
 H          0.9829150638        0.9413542749        0.0060983460
 H         -0.9816349295        0.9414822030       -0.0047019841
 H         -2.2174814808       -0.4072776097        1.3741172249
 H         -3.4376985563       -2.5253190662        1.3224469714
 H         -7.3122435663       -1.3910157555        1.3753808953
 H         -9.7710956292       -1.4098051593        1.3063902340
 H        -10.9611821042       -3.0454122475       -0.1102937537
 H         -9.6731579128       -4.6607155963       -1.4638804246
 H         -7.2138124504       -4.6359194621       -1.4098473953
 H         -6.4174618203       -5.2428712461        1.2326111991
 H         -5.1849113957       -7.3691498447        1.1928029803
 H         -3.0537820796       -7.5480073675       -0.0428506593
 H         -2.1726527233       -5.5832160797       -1.2548263466
 H         -3.4143149516       -3.4618189052       -1.2391248732
 H         -6.4257547426       -0.7387822583       -1.1662974712
 H         -5.2013002031        1.3768785327       -1.1144102862
 H         -4.6069969386        3.1672869010        0.2594635572
 H         -3.3152313750        5.2673824233        0.2114193892
