74
 xtb: 6.7.1 (edcfbbe)
N           10.49684005878063       -1.11531296836215       -0.69130687598968
C            9.38118530996383       -0.88607035028861       -0.54527643305986
C            8.01002550295897       -0.60517255779181       -0.36405396692706
C            7.15652368476872       -0.54682637930620       -1.46851141533469
C            5.81707869595414       -0.27104672478937       -1.28376790712247
C            5.30502603025834       -0.05456003703235       -0.00503948247677
C            3.86777727581057        0.23435097825999        0.18826262639089
C            3.03672705111714       -0.73424925041055        0.76999617089515
C            3.52815472220139       -2.01421830959288        1.14218611169013
C            2.71948043487841       -2.93958069544480        1.72750220065011
C            1.36846097322761       -2.63610246472548        1.98940421411412
C            0.85488819283489       -1.42689917255805        1.63261425773915
C            1.65302299182822       -0.44502042592532        0.98688604692814
C            1.12618351396749        0.79182524738525        0.58045131652998
C           -0.30345301443505        1.08777378428840        0.80470004594984
C           -0.67926521254113        2.11042113893654        1.67562733990555
C           -2.01150291069852        2.39693968395795        1.91992857407155
C           -2.98387554908738        1.64171730533097        1.28372999227307
C           -2.60873299570141        0.61122892904772        0.40900838239911
C           -1.28495084976874        0.33127931353094        0.16113563585746
C           -3.82756093865393       -0.09591001383595       -0.13437298998751
C           -3.83528161011261       -1.56683584954888        0.21429767582070
C           -3.79308479449470       -2.15053151796322        1.46191226431824
C           -3.79550672041536       -3.53704872082334        1.54429657370038
C           -3.84092496131419       -4.31622309693875        0.39756134041149
C           -3.88563254673840       -3.73207513149221       -0.85874796864481
C           -3.88214761178210       -2.34930974432933       -0.94862669319801
C           -3.92197299591170       -1.46102110467550       -2.10048427929207
C           -3.98393612678154       -1.72897681536531       -3.45849637071411
C           -4.01787653137691       -0.66357934232405       -4.34467496978174
C           -3.98918746973832        0.64522022266476       -3.88598127757964
C           -3.92565467213262        0.92133329096397       -2.52609062229606
C           -3.89300430990398       -0.13528664298579       -1.64192710550838
C           -4.94871808002071        0.68107690824821        0.51339829131109
C           -6.30756690988871        0.49670791303167        0.37855729606909
C           -7.16248437399420        1.33502882666088        1.08256541582759
C           -6.66097514833660        2.33356990416689        1.90448542392309
C           -5.29486724341655        2.52179529766606        2.04339864942954
C           -4.43595462055560        1.69007032702628        1.34300896357939
C            1.95344124324160        1.74695462331671       -0.03107301413946
C            1.44521986197913        2.98633498354922       -0.50399330800123
C            2.26297644202229        3.92125370611027       -1.06129013501520
C            3.64587414868680        3.67593229439900       -1.17961405295984
C            4.16797115731167        2.48654376754921       -0.77233440551259
C            3.34604277100896        1.47411978196445       -0.20843152878344
C            6.16404825008939       -0.11590693460850        1.09168225951812
C            7.50638530288636       -0.38558983698629        0.92049487509204
H            7.54392490624972       -0.74476089676964       -2.45655535658992
H            5.14542410559998       -0.25257838501973       -2.12786325308099
H            4.57449364093392       -2.23403177021538        0.98860101977922
H            3.12453437694754       -3.88440288210134        2.06954768820117
H            0.75939924917204       -3.34610383819179        2.53962209178195
H           -0.17081771393771       -1.18383740544752        1.87344291591437
H            0.09246421047658        2.67869799900056        2.17694588959809
H           -2.28395526514426        3.18775474797823        2.60319387470894
H           -1.00055758834809       -0.46380502052720       -0.51368464919039
H           -3.75942490310120       -1.56882051920098        2.34440886011295
H           -3.76728126735747       -4.03971305573611        2.47937061695636
H           -3.84925242710991       -5.40055198543531        0.43949101010418
H           -3.92733185843627       -4.33073787426349       -1.78473187434273
H           -4.01051273653619       -2.71503235185200       -3.84227547335977
H           -4.06943424508246       -0.80874783471206       -5.41177266833429
H           -4.01535943110210        1.49802843636833       -4.57874375800250
H           -3.90119173043570        1.95749827249857       -2.15024205212478
H           -6.69791644867022       -0.29005039269951       -0.25281562553213
H           -8.23018147568642        1.19352832723205        1.00187778858701
H           -7.34531428870515        2.95931718689443        2.45704513784319
H           -4.90957584676095        3.29146365499388        2.69445112896139
H            0.37651970660725        3.15548616758685       -0.44165214127994
H            1.84137790625369        4.82646306607289       -1.47381062708449
H            4.26719384434435        4.40755015402945       -1.66628991837720
H            5.21831924873873        2.28396546858443       -0.90196590919697
H            5.77937816561781        0.07961381492942        2.08278744666785
H            8.18093984009901       -0.40564782586042        1.76589922044585
