74
 xtb: 6.7.1 (edcfbbe)
N           10.71445925974126        0.00440742307867       -1.38536785731001
C            9.60095844221907        0.00293376502210       -1.10492982930905
C            8.23208659997870        0.00166123874699       -0.76014796934790
C            7.25978933184679        0.02042285844376       -1.76292245078298
C            5.92323997873455        0.01950271438154       -1.41886554895951
C            5.53443042217429       -0.00038637857915       -0.08083247510987
C            4.09650897202389       -0.00249996467336        0.27694695669831
C            3.42920862018109       -1.22029420849212        0.46083729674256
C            4.09359082661026       -2.46781714713680        0.31902127820377
C            3.42999241553602       -3.64284765489533        0.49629922378732
C            2.05818886705551       -3.64450594789751        0.82379724430042
C            1.38575611002781       -2.47058174239137        0.97223489723339
C            2.04063866811867       -1.22195274799947        0.80145491534521
C            1.35992426546177       -0.00722640639215        0.95425248339729
C           -0.07227493203987       -0.00988897004929        1.33512484142927
C           -0.42912974329860       -0.02456116036775        2.68172415081679
C           -1.75732237666148       -0.02643499657948        3.07315826324740
C           -2.73940538732003       -0.01477763831956        2.09586812993312
C           -2.38089294109510       -0.00179140835837        0.73950952580222
C           -1.06027100353592        0.00155546892392        0.35107659986212
C           -3.61086807941789        0.00557035456814       -0.13598245614455
C           -3.67344379734270       -1.16201275385696       -1.09255342844412
C           -3.65367635529772       -2.50885932095694       -0.80200668720071
C           -3.72756289016305       -3.41407273127721       -1.85280644918833
C           -3.81865730374446       -2.97311796363722       -3.16478129292547
C           -3.83821875546364       -1.61913905684942       -3.46077781163162
C           -3.76446968020035       -0.71040373720547       -2.41739895668545
C           -3.76336411020310        0.74461382752535       -2.40998113091191
C           -3.83575897239721        1.66389637392919       -3.44416398887738
C           -3.81421371272115        3.01480390929115       -3.13457940471623
C           -3.72239651936321        3.44235978832378       -1.81823798772678
C           -3.64978979598483        2.52651017816859       -0.77659894049391
C           -3.67168285427497        1.18264620313176       -1.08056020237335
C           -4.71962964368079       -0.00078097541006        0.89025825912692
C           -6.08117227940506        0.00336663662024        0.67889579094851
C           -6.92236959705682       -0.00563178688371        1.78409533578760
C           -6.40488823057304       -0.01858205763271        3.07105461599045
C           -5.03591799797767       -0.02276267167346        3.28767765899935
C           -4.19079446054148       -0.01369861692617        2.18973863694575
C            2.02673478568555        1.20965104769315        0.76248983443178
C            1.35906576182451        2.45581142537525        0.89876817037296
C            2.01861709920062        3.63191814169391        0.71435349872201
C            3.38998584532010        3.63529057022878        0.38505274190419
C            4.06611648954363        2.46266974350770        0.24244148383701
C            3.41502765833477        1.21289337807992        0.42070323999539
C            6.51008041554055       -0.01912723030873        0.91361998733107
C            7.85032142158342       -0.01782189812497        0.58336999855108
H            7.56155875586311        0.00966987056005       -2.80021461489819
H            5.16758948591187        0.00957735443218       -2.19049897927986
H            5.13386902591655       -2.46656886005694        0.03818207987283
H            3.92982323253618       -4.58230563026796        0.33611878706595
H            1.52966712072594       -4.58193837217382        0.90678820957809
H            0.32515535442375       -2.46072168669595        1.19644391902191
H            0.35188639264683       -0.00933271380850        3.42880356103138
H           -2.01840826060660       -0.01045450922141        4.12104207541227
H           -0.78659788875291        0.00397497462044       -0.69463928692066
H           -3.58170901354479       -2.85643350012280        0.22951800785123
H           -3.71013076611998       -4.48337293532101       -1.62991277347463
H           -3.87244679105385       -3.71278601580872       -3.95367098300226
H           -3.90857419773044       -1.30014534061404       -4.47960763130266
H           -3.90912562905898        1.31726220651416       -4.47532507434595
H           -3.87397004291237        3.72822122050148       -3.94154411799143
H           -3.71187603404651        4.49129075612363       -1.61530775889779
H           -3.58275894422000        2.85842745870210        0.23879124427931
H           -6.48537532937870        0.00246847685930       -0.32334765400081
H           -7.99288496231029       -0.00289120431239        1.63890733432312
H           -7.07931444046457       -0.00916756930294        3.91535973454136
H           -4.63816183791323       -0.01015802442745        4.29184115419659
H            0.31823229470894        2.45641863505342        1.17647051941206
H            1.51635129047131        4.57854589693444        0.86784341762810
H            3.91627030325168        4.58102038479144        0.29612715384214
H            5.12651650474810        2.46628476025195        0.01647620751384
H            6.21026833102542       -0.00982975645980        1.95124163632078
H            8.60758964167481       -0.00949028273636        1.35378744351443
