112
 xtb: 6.7.1 (edcfbbe)
C            6.48457035028047        1.90963980331404       -4.08005087458571
C            5.29809362729601        2.12944445198242       -4.76032792138188
C            4.10476562166136        1.65178796514256       -4.24998937745070
C            4.08018881290388        0.93992505714617       -3.05303004457315
C            2.81675596009189        0.41839625720501       -2.50703015267696
C            1.66864120643310        1.21954744188824       -2.50041339603116
C            0.47508173999609        0.78139370271195       -1.96262264567735
C            0.44017783407960       -0.48832451663824       -1.40770124565754
C            1.56292227563709       -1.34019127935164       -1.47662764042922
C            2.75481055343201       -0.87801659816925       -2.00986444834360
C            1.14963677641423       -2.60545461215888       -0.93087841803021
C            1.80554328889526       -3.80961415954817       -0.73148085277372
C            1.11643066281236       -4.87222709761499       -0.15929546922816
C            1.78653167849389       -6.16480750106715        0.05749004543450
C            1.13036993041812       -7.36261861166292       -0.21888806996191
C            1.76255293702225       -8.57558664219055       -0.01541721441240
C            3.05821640672882       -8.61354830712304        0.47375992768344
C            3.72018907893210       -7.42915534290968        0.75303158025282
C            3.09156074430748       -6.21562205024131        0.54352525361834
C           -0.22137991046655       -4.70349938235189        0.22062226996918
C           -0.89100536096987       -3.50954032825239        0.03818829763689
C           -0.20322868502052       -2.46122659897896       -0.55357710441244
N           -0.61854014652747       -1.16552721478781       -0.82443298244890
C           -1.82087739612589       -0.59543695516575       -0.40679588124551
C           -3.01431296230911       -1.18776740196275       -0.73706994720416
C           -4.23810983058831       -0.61174326317805       -0.34776505222033
N           -5.39246757672735       -1.20989702576804       -0.67401536569797
C           -6.51786550302934       -0.62155343043887       -0.30862981004858
C           -7.77609633723290       -1.24951242509966       -0.64102751117419
C           -7.82642192267399       -2.46630984589336       -1.33069819201010
C           -9.05359627645193       -3.02175479907066       -1.61898584599381
C          -10.19854905061136       -2.33807148439388       -1.20663795861555
N          -10.17291710297731       -1.19607338424972       -0.55902354880336
C           -8.99370497554428       -0.64440511363871       -0.27036430908374
C           -8.98668419185884        0.62020118342667        0.44898858046052
N          -10.16001045483144        1.16211651839431        0.77679914079106
C          -10.17298421057883        2.30329848987527        1.42701390603926
C           -9.02037889620738        2.99617886947765        1.80079069838221
C           -7.79910540061174        2.45118479364147        1.47051197372184
C           -7.76216210878287        1.23506870860745        0.77872851268254
C           -6.51078906069507        0.61640988185474        0.40525289701330
N           -5.37843766753034        1.21252019973880        0.73417472058851
C           -4.23089125500758        0.62062855416581        0.37406656883644
C           -2.99936022499097        1.20083602363407        0.73118214942861
C           -1.81302865321566        0.60961894035634        0.37450083453144
N           -0.60284334944560        1.17730140666870        0.77226135029547
C            0.45855066473903        0.49802517484800        1.34691240220916
C            0.49572864450153       -0.77521108829332        1.89362740445216
C            1.69417107741752       -1.22017891332906        2.41298512459745
C            2.84099667714500       -0.41588752080894        2.42791023317296
C            4.10157068872748       -0.95161701908449        2.96622536428861
C            4.91465496676863       -0.17914830043040        3.79274242626275
C            6.09539614252182       -0.69252934373035        4.29813294968808
C            6.48696862060249       -1.98307790936376        3.98129345453645
C            5.68836043169106       -2.75895566286801        3.15675203261088
C            4.50502868143856       -2.24885133110256        2.65512998477352
C            2.77330867923100        0.88744845190569        1.94974026253289
C            1.58104966704072        1.35015876631241        1.41650768030065
C            1.16401322559308        2.61858856841636        0.88023952822746
C            1.81419220140349        3.82773735233977        0.69304108089924
C            1.12090477079897        4.89175703903445        0.12811881300762
C            1.78214095844539        6.19207159237845       -0.06727395089897
C            2.60942501621159        6.72021307115154        0.92199196137020
C            3.22424620651950        7.94629960972334        0.74709717978998
C            3.02724748103666        8.66448699057885       -0.42091983762886
C            2.21069599669855        8.14747510632485       -1.41323893373310
C            1.59190428450394        6.92327186069574       -1.23797994272055
C           -0.21594214111647        4.72080369970410       -0.25382094352490
C           -0.88336725861237        3.52536232095570       -0.07347801179326
C           -0.19048197126428        2.47476107615104        0.50786056098599
C            5.27935350152807        0.72373908076067       -2.37732152479242
C            6.47076761440585        1.20763235255817       -2.88583465165089
H            7.41149387354775        2.27723047443209       -4.49989201409638
H            5.29611845199137        2.66907945452757       -5.70917038080734
H            3.17838182641032        1.80893562845004       -4.80262058574691
H            1.72403751750927        2.21399948874763       -2.91568473618788
H           -0.39861085652716        1.41141463974928       -1.98143484476428
H            3.61600536420942       -1.52996767460867       -2.07489801433215
H            2.83117407827265       -3.93160372154165       -1.05707227500237
H            0.10746093119617       -7.34186248927964       -0.61956385293340
H            1.21871810366563       -9.50292124025349       -0.25923139554164
H            3.53545236103399       -9.58044545344268        0.58897831821795
H            4.73232538468479       -7.47677851321702        1.07565022178306
H            3.61837636469092       -5.31531779699580        0.72681811254879
H           -0.73548823515663       -5.52990517282528        0.68704021649247
H           -1.91082906964984       -3.40142321933990        0.36597045080518
H           -3.03444293064995       -2.09095540435098       -1.32675654232144
H           -6.89648542162642       -2.94057262466264       -1.61268726435280
H           -9.13179019512196       -3.96078091784850       -2.14030619413618
H          -11.18321348621350       -2.73412126206182       -1.40176127838020
H          -11.15181990949628        2.68971811051732        1.66655195654748
H           -9.08599139631786        3.93270407747678        2.33394604428600
H           -6.86230486950007        2.93141398831828        1.72803094268215
H           -3.00531588618608        2.10210754207658        1.32385356708897
H           -0.37889691175779       -1.40061094547411        1.92649816745081
H            1.74209272342607       -2.20125633062829        2.85940965079158
H            4.59182476073092        0.84897511127102        4.07700491095107
H            6.69081584688291       -0.04599647511091        4.98886864806014
H            7.39539860793769       -2.34913004071194        4.44869329584199
H            5.98882447577366       -3.74820454998349        2.98129885665995
H            3.89314083312164       -2.84497426663894        2.05440156193571
H            3.64058366283281        1.53548735264094        1.99022598695555
H            2.85464889864930        3.93717427847020        0.96523457459734
H            2.74903468564639        6.17870370142558        1.84225571837629
H            3.85259134162253        8.35148222681175        1.52490673722307
H            3.50699542995252        9.62426152593774       -0.56215517645700
H            2.06115595628919        8.69809461921230       -2.33568057011794
H            0.97484485911802        6.51660552743576       -2.02907382896727
H           -0.74386112840513        5.55485664829235       -0.69204873514000
H           -1.90825869520098        3.41690019725811       -0.39038726434591
H            5.27205833011665        0.18096591017409       -1.45506212081628
H            7.39294782150629        1.02877118381292       -2.37018540909378
