  66
 
 O         -1.6475871986        2.6277037411       -3.2903482448
 S         -0.3913051956        2.6437537537       -2.5857749993
 O          0.8043821306        3.0174486565       -3.2983607241
 C         -0.5392678808        3.6287102784       -1.1182223384
 C          0.6049731087        4.1298423464       -0.4858176254
 C          0.4740704387        4.6679836617        0.7772469757
 C         -0.7843278806        4.6694685585        1.3743573544
 N         -1.8721009625        4.1916964216        0.7679120331
 C         -1.7555026075        3.6898691540       -0.4393241595
 C         -0.1473465863        1.0943511376       -1.7774138834
 C          1.1308244397        0.7673414267       -1.2965345488
 C          1.2705701299       -0.2421150626       -0.3748463013
 N          2.5575596423       -0.5715775156        0.1263383128
 C          3.2203116959        0.3038384225        0.9674097786
 C          2.6597077355        1.5122680411        1.3804470997
 C          3.3584385022        2.3595404983        2.2164267774
 C          4.6318682109        2.0214137738        2.6626996531
 C          5.1972169131        0.8186605670        2.2818254037
 C          4.5027578721       -0.0439924211        1.4477789232
 O          5.0988628504       -1.2274170977        1.1262212191
 C          4.4342949072       -2.0754040830        0.2915280841
 C          5.0562570845       -3.2683118612       -0.0450874463
 C          4.4364607462       -4.1561341616       -0.9048443279
 C          3.1943548663       -3.8436035968       -1.4470092453
 C          2.5667090337       -2.6583765733       -1.1193609385
 C          3.1614102573       -1.7619847368       -0.2329746986
 C          0.1560521795       -0.9452615982        0.1167230440
 C         -1.1183091903       -0.5949856299       -0.3702055856
 N         -2.2617279357       -1.2523309099        0.1507923572
 C         -2.5001049364       -2.5882521718       -0.1210163707
 C         -1.6390799461       -3.3500032029       -0.9080635277
 C         -1.9031168081       -4.6848386130       -1.1509021804
 C         -3.0369226191       -5.2837886363       -0.6232652923
 C         -3.9189212502       -4.5374201727        0.1385011414
 C         -3.6619123631       -3.1984484068        0.3886701652
 O         -4.5796644552       -2.5089392703        1.1258026853
 C         -4.3442765599       -1.1842164459        1.3640936859
 C         -5.2936543661       -0.4868519848        2.0940763289
 C         -5.1015873507        0.8531252434        2.3832655585
 C         -3.9448689938        1.4921642479        1.9605064885
 C         -2.9930393242        0.8027450099        1.2349034882
 C         -3.1833531447       -0.5366407509        0.9010413182
 C         -1.2715913322        0.4035919455       -1.3015806520
 H          1.5488203807        4.0960394073       -1.0071827187
 H          1.3243186659        5.0830167955        1.2969519353
 H         -0.9398514600        5.0679064373        2.3665222429
 H         -2.6557674205        3.3228760745       -0.9122138719
 H          1.9807419652        1.3136438446       -1.6720911917
 H          1.6726593042        1.7815522664        1.0384193442
 H          2.9061262873        3.2884780839        2.5247276813
 H          5.1770623659        2.6894653000        3.3098195258
 H          6.1768463433        0.5229810472        2.6214507475
 H          6.0268229204       -3.4755362676        0.3760932496
 H          4.9236660765       -5.0831037950       -1.1611019331
 H          2.7174223203       -4.5256454479       -2.1329517892
 H          1.6138404169       -2.4066692019       -1.5556944664
 H          0.2725551158       -1.7132935096        0.8629938262
 H         -0.7666510345       -2.8822966673       -1.3334797241
 H         -1.2213981621       -5.2574117619       -1.7598961811
 H         -3.2416430754       -6.3253932977       -0.8122647758
 H         -4.8180828560       -4.9703503961        0.5461839000
 H         -6.1741872276       -1.0150434564        2.4230450181
 H         -5.8493549188        1.3916163710        2.9430817639
 H         -3.7738311506        2.5332227124        2.1835603204
 H         -2.0956267828        1.3080000918        0.9172338678
 H         -2.2418620518        0.6773116709       -1.6832929057
