  68
 
 C          3.8627965588       -3.9142721410        3.2393242952
 C          5.2136013194       -3.5869156263        3.3333523177
 C          5.7405155853       -2.5100866154        2.6474063449
 C          4.8875788174       -1.7543239364        1.8519525481
 C          3.5250365567       -2.0985921214        1.7692232875
 C          2.9937172509       -3.1753955099        2.4553025458
 O          2.8438699025       -1.2513441969        0.9410507131
 C          3.7663432739       -0.3553440761        0.4748013906
 C          5.0474610773       -0.6006790121        1.0059121769
 C          6.1358326638        0.2162116425        0.6933691657
 C          5.9452546214        1.2962262504       -0.1380395627
 C          4.6792699871        1.5454930021       -0.6705968296
 C          4.1797330578        2.6047401588       -1.5046043217
 C          4.7821495357        3.7104368460       -2.0928901164
 C          4.0034571151        4.5597840023       -2.8534611224
 C          2.6435821891        4.3165870505       -3.0326085687
 C          2.0229928029        3.2231760956       -2.4563435110
 C          2.7999543345        2.3716184308       -1.6874679064
 N          2.4444411146        1.1960825508       -1.0334453122
 C          1.2047763028        0.5858302920       -1.0821269211
 C          1.0579960080       -0.8045037068       -1.1525052645
 N         -0.1282884321       -1.3736160963       -1.1382747690
 C         -1.2047883313       -0.5858260439       -1.0821163967
 N         -2.4444530795       -1.1960781098       -1.0334263889
 C         -2.7999736250       -2.3716101721       -1.6874516777
 C         -2.0230206514       -3.2231639642       -2.4563403439
 C         -2.6436147598       -4.3165770856       -3.0325964691
 C         -4.0034855602       -4.5597803982       -2.8534264074
 C         -4.7821698199       -3.7104359431       -2.0928440659
 C         -4.1797487325       -2.6047369051       -1.5045674159
 C         -4.6792785059       -1.5454885724       -0.6705571843
 C         -5.9452578814       -1.2962219756       -0.1379873783
 C         -6.1358274041       -0.2162087092        0.6934251764
 C         -5.0474515542        0.6006787579        1.0059622378
 C         -4.8875578449        1.7543146826        1.8520128218
 C         -5.7404840388        2.5100693531        2.6474854746
 C         -5.2135620081        3.5868951688        3.3334302948
 C         -3.8627594769        3.9142552429        3.2393844124
 C         -2.9936906513        3.1753872458        2.4553430373
 C         -3.5250180202        2.0985879498        1.7692635019
 O         -2.8438603052        1.2513421852        0.9410813104
 C         -3.7663383892        0.3553423007        0.4748409780
 C         -3.5759665622       -0.7041980550       -0.3990072726
 C         -1.0580088729        0.8045082004       -1.1524905756
 N          0.1282756700        1.3736205459       -1.1382704185
 C          3.5759618458        0.7041993862       -0.3990410516
 H          3.4839577883       -4.7633704064        3.7876544175
 H          5.8582326674       -4.1895379091        3.9553549148
 H          6.7869881676       -2.2584429463        2.7209160208
 H          1.9466014383       -3.4211137249        2.3731651910
 H          7.1043741370        0.0032146677        1.1163995812
 H          6.7624289647        1.9583500106       -0.3761326871
 H          5.8364143685        3.8949986515       -1.9563540897
 H          4.4509464144        5.4258057914       -3.3176404202
 H          2.0586109744        4.9968587725       -3.6334222881
 H          0.9688947204        3.0404934116       -2.5881661691
 H          1.9021442912       -1.4701939188       -1.2527181199
 H         -0.9689229683       -3.0404835084       -2.5881696982
 H         -2.0586512642       -4.9968427833       -3.6334247264
 H         -4.4509837941       -5.4257899576       -3.3176201096
 H         -5.8364362649       -3.8949899811       -1.9563100628
 H         -6.7624329473       -1.9583497501       -0.3760667895
 H         -7.1043617491       -0.0032198226        1.1164759803
 H         -6.7869588082        2.2584341601        2.7209940574
 H         -5.8581905432        4.1895270058        3.9554265858
 H         -3.4839170342        4.7633586788        3.7877041795
 H         -1.9465756254        3.4211058062        2.3731951674
 H         -1.9021580175        1.4701983840       -1.2526967139
