82

C     -7.050929   -5.237034    0.263204
C     -6.134952   -4.962226   -0.749803
C     -5.469038   -3.734614   -0.773034
C     -5.718358   -2.765861    0.209626
C     -5.000540   -1.501972    0.149888
N     -3.661548   -1.463902   -0.125658
C     -3.324056   -0.189265   -0.159117
C     -1.925123    0.254286   -0.248695
C     -1.052841   -0.400377   -1.128975
C      0.289381   -0.015703   -1.234289
C      0.782029    1.023258   -0.446732
O      2.063214    1.499536   -0.450653
C      3.010251    0.809786   -1.264966
C      4.384898    1.450756   -1.078479
C      4.870480    1.511958    0.376102
C      5.010006    0.158119    1.082317
C      6.026256   -0.759301    0.446536
C      5.603822   -1.905404   -0.254481
C      6.508302   -2.772535   -0.863713
C      7.881377   -2.530168   -0.792191
C      8.349461   -1.402124   -0.089661
C      7.419119   -0.552739    0.510861
N      8.141974    0.443626    1.130302
C      9.492351    0.276607    0.940555
C     10.570181    1.051401    1.385468
C     11.856767    0.630228    1.036582
C     12.053771   -0.519095    0.274825
C     10.963424   -1.281227   -0.160500
C      9.654944   -0.877014    0.177343
C     -0.076791    1.667152    0.446291
C     -1.416603    1.281582    0.554612
N     -4.459226    0.625311   -0.063168
C     -4.518817    2.031510   -0.321478
C     -3.762981    2.579474   -1.369363
C     -3.814728    3.949830   -1.634734
C     -4.620574    4.781348   -0.861373
C     -5.375695    4.244275    0.178623
C     -5.327308    2.874147    0.449580
C     -5.530771   -0.222135    0.258424
C     -6.930026    0.187087    0.386057
C     -7.706589    0.407871   -0.757454
C     -9.043030    0.792881   -0.637069
C     -9.612398    0.954955    0.625332
C     -8.848053    0.730771    1.769325
C     -7.511296    0.346417    1.650835
C     -6.625810   -3.061618    1.232850
C     -7.293464   -4.289640    1.256199
H     -7.568535   -6.192336    0.284176
H     -5.933713   -5.702139   -1.519667
H     -4.748408   -3.532119   -1.562855
H     -1.420736   -1.223885   -1.739278
H      0.917012   -0.551555   -1.938092
H      2.726458    0.898122   -2.320603
H      3.050537   -0.249532   -0.990778
H      4.336730    2.483195   -1.447772
H      5.118125    0.927680   -1.702554
H      4.180953    2.134769    0.959448
H      5.832666    2.038114    0.389679
H      4.034651   -0.338254    1.147243
H      5.316571    0.333983    2.121583
H      4.541603   -2.133239   -0.325625
H      6.144276   -3.647184   -1.396777
H      8.581361   -3.209920   -1.268340
H      7.731569    1.199759    1.656698
H     10.420304    1.946536    1.980050
H     12.716457    1.209242    1.366315
H     13.062735   -0.829571    0.015229
H     11.125538   -2.176267   -0.753269
H      0.301762    2.472651    1.070989
H     -2.050032    1.791059    1.276632
H     -3.150178    1.956763   -2.017174
H     -3.229784    4.365899   -2.451399
H     -4.661079    5.847418   -1.069561
H     -6.001413    4.893608    0.786182
H     -5.899254    2.504724    1.293884
H     -7.275790    0.279202   -1.747749
H     -9.639945    0.962754   -1.529384
H    -10.654005    1.252266    0.716581
H     -9.293522    0.852867    2.753088
H     -6.924172    0.174524    2.550023
H     -6.811432   -2.352044    2.032240
H     -7.997774   -4.507310    2.054682
