  118
 
 C          6.7635348142       -4.3762992245        1.8835458045
 C          6.4859722825       -4.0639857534        0.5631279114
 C          6.9047326213       -2.8584940303        0.0297499164
 C          7.6034998431       -1.9595983485        0.8269922831
 N          7.9956067824       -0.7153489967        0.2951245813
 C          7.1356428011        0.2719973241       -0.1413740699
 C          5.6906660810        0.2008175910       -0.0999999426
 C          4.9789101205       -0.5020831430        0.8756712847
 C          3.6036061229       -0.5439319545        0.8421110643
 C          2.8775673152        0.1340331720       -0.1447532386
 C          1.4234442575        0.0724027770       -0.1699838898
 C          0.6534510673        1.2780345877       -0.1656293759
 C          1.2559430068        2.5356790192       -0.0713102838
 C          0.5083595832        3.7070660813       -0.1456929580
 C         -0.8574972703        3.6388209009       -0.3200110352
 C         -1.4896458610        2.3994403200       -0.3526811132
 C         -0.7696986974        1.2088523787       -0.2204616477
 C         -1.4239385338       -0.0630969439       -0.1689294918
 C         -2.8780416551       -0.1244740740       -0.1430013150
 C         -3.6052108669        0.5798428569        0.8243672916
 C         -4.9804721791        0.5367716042        0.8591190273
 C         -5.6911537689       -0.1943152764       -0.0964282983
 C         -7.1358812941       -0.2709461847       -0.1350467751
 N         -7.7814985346       -1.3257572027       -0.5755459952
 C         -9.1002325108       -1.0417668495       -0.4509160348
 C        -10.2076635928       -1.8804016227       -0.7664208889
 C        -10.0588638107       -3.1711616973       -1.2602209298
 C        -11.1742505163       -3.9451589904       -1.5321032397
 C        -12.4412552144       -3.4407424417       -1.3178382087
 C        -12.6273105714       -2.1446030692       -0.8276236614
 C        -13.9298879688       -1.6084032533       -0.6143745879
 C        -14.0973505179       -0.3445714251       -0.1650930804
 C        -12.9810798700        0.4962691992        0.1173468441
 C        -13.1631884880        1.8115902291        0.5536702022
 C        -12.0779778514        2.6258642181        0.7975560987
 C        -10.7885288949        2.1460532197        0.6432151804
 C        -10.5581791839        0.8311202178        0.2411727755
 C        -11.6699327486       -0.0108747707       -0.0574688008
 C        -11.4975659177       -1.3389341242       -0.5412778527
 C         -9.2718201639        0.2437786803        0.0707518067
 N         -7.9994046489        0.7233239620        0.2780690406
 C         -7.6122925062        1.9818948547        0.7790391528
 C         -7.8899395111        2.3231679090        2.0995057915
 C         -7.4761086728        3.5474921865        2.5908086128
 C         -6.7829628455        4.4277159243        1.7752077452
 C         -6.5062649149        4.0850208868        0.4621654373
 C         -6.9197206350        2.8648391848       -0.0410942402
 C         -4.9701271404       -0.9205174181       -1.0511437762
 C         -3.5957637233       -0.8909924513       -1.0711481040
 C         -0.6539386647       -1.2681537837       -0.1306911290
 C         -1.2564532176       -2.5227054875       -0.0016698867
 C         -0.5088474420       -3.6957047447       -0.0431484142
 C          0.8570718165       -3.6323146171       -0.2187770417
 C          1.4892246347       -2.3943092530       -0.2855891563
 C          0.7692286848       -1.2005043445       -0.1867148010
 C          3.5964057342        0.8738832690       -1.0934108533
 C          4.9708558525        0.9019019634       -1.0741269653
 N          7.7848829272        1.3132168081       -0.6079290416
 C          9.1026642176        1.0271228770       -0.4774843611
 C         10.2131078517        1.8534373040       -0.8141943189
 C         10.0689656427        3.1325203925       -1.3388122251
 C         11.1871602009        3.8952272015       -1.6303586197
 C         12.4523646449        3.3909818006       -1.4053092580
 C         12.6337447211        2.1062734033       -0.8842280472
 C         13.9343925387        1.5700427784       -0.6595563623
 C         14.0972767313        0.3166934113       -0.1802310544
 C         12.9779441192       -0.5125436117        0.1235991270
 C         13.1552212019       -1.8177465239        0.5911760714
 C         12.0669997141       -2.6214588607        0.8558187876
 C         10.7793290871       -2.1401759965        0.6915160085
 C         10.5538645998       -0.8343501070        0.2582420280
 C         11.6686586774       -0.0043629884       -0.0618679612
 C         11.5010807535        1.3123411146       -0.5773587128
 C          9.2696932686       -0.2460418045        0.0750907841
 C          7.8820480920       -2.2703335512        2.1547862058
 C          7.4629036349       -3.4802726817        2.6763029947
 H          6.4345911371       -5.3177721512        2.2965121754
 H          5.9425490289       -4.7618101924       -0.0558171010
 H          6.6912753029       -2.6028349587       -0.9975131007
 H          5.4979198296       -0.9954145540        1.6829850333
 H          3.0671692165       -1.0752837274        1.6150974575
 H          2.3235074821        2.6046705170        0.0690913846
 H          1.0070396586        4.6624598805       -0.0791686682
 H         -1.4448129444        4.5398405106       -0.4172482732
 H         -2.5598974450        2.3609973608       -0.4873170793
 H         -3.0696713687        1.1332625730        1.5823494830
 H         -5.5001424240        1.0515489269        1.6524850313
 H         -9.0608348683       -3.5484169808       -1.4191267153
 H        -11.0521294950       -4.9486293285       -1.9134593599
 H        -13.3105180175       -4.0465195215       -1.5319036258
 H        -14.7821684795       -2.2378591830       -0.8284995749
 H        -15.0872007251        0.0622261915       -0.0126016354
 H        -14.1677174817        2.1871829658        0.6854350131
 H        -12.2284185046        3.6482810479        1.1127792446
 H         -9.9576665952        2.8081128706        0.8276945169
 H         -8.4270808117        1.6266234169        2.7268321303
 H         -7.6914889997        3.8122635016        3.6151134447
 H         -6.4582067482        5.3806025297        2.1646291322
 H         -5.9676913222        4.7705046694       -0.1745474958
 H         -6.7068797360        2.5855039094       -1.0622985013
 H         -5.5214691818       -1.4963180036       -1.7779573140
 H         -3.0562657293       -1.4289817425       -1.8370980142
 H         -2.3240636627       -2.5878095484        0.1402130281
 H         -1.0075622681       -4.6488764743        0.0497421695
 H          1.4444361485       -4.5356722363       -0.2907185578
 H          2.5595270292       -2.3596464009       -0.4208311119
 H          3.0577608481        1.3913020960       -1.8739922750
 H          5.5230657356        1.4565870828       -1.8165446854
 H          9.0722903538        3.5098726305       -1.5057813459
 H         11.0686566235        4.8897116726       -2.0356457967
 H         13.3238203639        3.9878997294       -1.6347969661
 H         14.7889617215        2.1906873880       -0.8896918994
 H         15.0856527509       -0.0903742606       -0.0191343710
 H         14.1583718556       -2.1942095832        0.7307433443
 H         12.2136640177       -3.6366283298        1.1953190607
 H          9.9459845573       -2.7941809410        0.8928038914
 H          8.4239879637       -1.5616299851        2.7641198363
 H          7.6789845088       -3.7213362032        3.7063031063
