  66
 
 C         -7.8862782681        0.9049445883        1.0915782935
 C         -6.4321051809        0.5048925467        0.8375312825
 C         -5.7941244882        0.1367933703        2.1949143309
 C         -5.6262912253        1.6208665485        0.2003243935
 C         -6.0264942459        2.9455591189        0.1407688747
 C         -5.2323184699        3.9043515811       -0.4694341099
 C         -4.0269898758        3.5466041934       -1.0531320342
 C         -3.6005247179        2.2349459029       -0.9990251449
 C         -4.3802999483        1.2788262618       -0.3489689433
 N         -3.9974991346       -0.0691897331       -0.3152927362
 C         -2.7483814547       -0.4942838690        0.0828460958
 C         -2.4331739853       -1.8685622560        0.1788659938
 C         -1.1842773654       -2.2764118588        0.5617564010
 C         -0.1639548884       -1.3486230739        0.8652519757
 C          1.1496015379       -1.8449492500        1.2668418479
 O          1.2139878527       -3.0042240929        1.7800998370
 C          2.3257151315       -1.0210491560        1.1160058109
 C          2.4102423242        0.0463737384        0.1957509480
 C          3.5704713979        0.7706928388        0.0707460960
 C          4.6736473159        0.4606701412        0.8592843350
 S          6.1904940471        1.3554686475        0.6509664480
 O          5.9133244767        2.6185108550       -0.0113060829
 O          6.8912158737        1.4300968932        1.9206222353
 C          7.1595204866        0.3340474458       -0.4652797907
 C          6.9058331979        0.3993523795       -1.8225609199
 C          7.6094886328       -0.4271739467       -2.6824266874
 C          8.5501638579       -1.3115335271       -2.1757244756
 C          8.7953663395       -1.3694619972       -0.8123505333
 C          8.0938283085       -0.5435520721        0.0506681747
 C          4.6324187295       -0.6143932260        1.7425574943
 C          3.4804184648       -1.3477881759        1.8643731905
 C         -0.5321807423        0.0115031848        0.9304024074
 C         -1.7802557888        0.4263975619        0.5476091566
 C         -5.0453608938       -0.9380699550       -0.6510634961
 C         -4.8667473330       -1.9637977340       -1.5787106945
 C         -5.9287681976       -2.7806377088       -1.9117993702
 C         -7.1695521623       -2.5693028678       -1.3317565178
 C         -7.3585300324       -1.5181360971       -0.4475972349
 C         -6.3122363373       -0.6780385739       -0.1041996262
 H         -7.9270285993        1.7467270903        1.7772636072
 H         -8.4225696068        0.0840502176        1.5594787358
 H         -8.3849947088        1.1749874607        0.1638711738
 H         -4.7564134292       -0.1675861467        2.0871740586
 H         -5.8314191039        0.9944272362        2.8626743696
 H         -6.3452017008       -0.6831254294        2.6495082689
 H         -6.9682846059        3.2472134808        0.5675682979
 H         -5.5662167543        4.9299337437       -0.5060431921
 H         -3.4255141166        4.2848572615       -1.5606998046
 H         -2.6868508272        1.9348803284       -1.4890316717
 H         -3.1842226012       -2.6140441151       -0.0236841808
 H         -0.9474447307       -3.3271834819        0.6323970240
 H          1.5712178811        0.2707587161       -0.4445359443
 H          3.6508876067        1.5936059429       -0.6230010903
 H          6.1754332671        1.1065562036       -2.1831043373
 H          7.4242594310       -0.3812186087       -3.7448498120
 H          9.0973911771       -1.9561114644       -2.8471086154
 H          9.5313392940       -2.0551719891       -0.4206440078
 H          8.2659155867       -0.5518542212        1.1158939537
 H          5.5083170898       -0.8372671390        2.3323242264
 H          3.4212212174       -2.1835768065        2.5459315268
 H          0.1701566018        0.7323044670        1.3190329744
 H         -2.0323319188        1.4698793581        0.6455166781
 H         -3.9098773935       -2.0856200661       -2.0626924277
 H         -5.7902172779       -3.5720063987       -2.6322412380
 H         -8.0001070955       -3.2101300560       -1.5849106726
 H         -8.3391893487       -1.3601411028       -0.0311807413
