  74
 
 C          7.1137984271        0.5654230670        1.2163449882
 C          6.3047108462        1.5109845506        0.3303654646
 C          7.2393319129        2.5067526494       -0.3568536518
 C          5.4887795394        0.7500509713       -0.7215207688
 C          4.3731843727       -0.1152521036       -0.1329275028
 C          3.4979864195       -0.6905524164       -1.2465532319
 C          2.5189961233       -1.8291084892       -0.9033574852
 C          3.2970676775       -3.0524498548       -0.4032331253
 C          1.3147788850       -1.5973964443        0.0320794886
 C          1.6021271004       -1.2671919012        1.5147210658
 C          0.3418638250       -0.5497822520        2.0433360305
 C         -0.6686183598       -0.7035913692        0.9065192469
 C         -1.9089361525        0.1851890940        0.8993837098
 C         -2.7122087895       -0.0289628461        2.1827440890
 C         -4.1301060570        0.4209275033        2.0607640760
 C         -4.7251146818        0.7339629149        0.9202020906
 C         -6.1939739586        1.0336201658        0.8549153460
 C         -6.9147173012       -0.1712712219        0.2160089975
 O         -8.0923783616        0.2268949869       -0.4682287622
 C         -5.9913453169       -0.8630015960       -0.7940980591
 C         -5.0390997736        0.1347081279       -1.4459066709
 C         -4.0294512413        0.7143756541       -0.4253032681
 C         -3.6984244869        2.1608763596       -0.8292088196
 C         -2.7541721313       -0.1644158631       -0.3410605428
 C         -1.8969657432       -0.0952909368       -1.6140711978
 C         -0.6544908627       -0.9869714583       -1.5453130006
 C          0.2100518950       -0.5843291118       -0.3527208594
 C          0.7569427884        0.8326972596       -0.5459174735
 H          7.7807027521       -0.0439569846        0.6092304279
 H          6.4628332033       -0.0945784156        1.7837976479
 H          7.7167759169        1.1329882038        1.9225579242
 H          5.6102503142        2.0736287482        0.9662123962
 H          6.6737320561        3.2114356461       -0.9631734096
 H          7.9402474247        1.9828736662       -1.0040806750
 H          7.8086989450        3.0696998420        0.3799085041
 H          5.0387667828        1.4779992940       -1.4023614507
 H          6.1627084378        0.1231811461       -1.3109761641
 H          4.8097278940       -0.9251337342        0.4500219344
 H          3.7795487074        0.5082483423        0.5370452717
 H          4.1712882947       -1.1021110510       -2.0062040667
 H          2.9573934821        0.1243560725       -1.7241658228
 H          2.0729827784       -2.1087928368       -1.8682114292
 H          2.6482166583       -3.9247709079       -0.3534241211
 H          3.7032336538       -2.8785132756        0.5892848875
 H          4.1206383847       -3.2804881653       -1.0767700698
 H          0.8081984096       -2.5727478880        0.0293272131
 H          2.4796190984       -0.6372660899        1.6238783268
 H          1.7897113582       -2.1836503341        2.0746748066
 H         -0.0140946231       -0.9929362952        2.9730082693
 H          0.5406976330        0.5058816884        2.2312909359
 H         -1.0357850040       -1.7380208216        0.9361301670
 H         -1.6201323596        1.2374546295        0.8555936631
 H         -2.7207556803       -1.0958006353        2.4376201403
 H         -2.2285540099        0.4897312670        3.0147510830
 H         -4.6930440589        0.4398470689        2.9863278743
 H         -6.3782868769        1.9072133792        0.2260188723
 H         -6.5963989965        1.2348258107        1.8493952504
 H         -7.1882164155       -0.8925288118        1.0037459903
 H         -8.6534328349        0.7169422903        0.1444289371
 H         -6.6184805028       -1.3360003407       -1.5516001456
 H         -5.4212510324       -1.6410721054       -0.2843846107
 H         -5.6330158590        0.9410916197       -1.8787026484
 H         -4.5120884529       -0.3536341499       -2.2644088210
 H         -2.9103795050        2.5726923360       -0.2046697347
 H         -4.5757178147        2.7932734950       -0.7128085847
 H         -3.3887723447        2.2078081311       -1.8699196669
 H         -3.0906947701       -1.2015507760       -0.2185649890
 H         -1.5772254402        0.9306505865       -1.7854852534
 H         -2.4920701532       -0.4024285509       -2.4758522405
 H         -0.9604672298       -2.0315630388       -1.4404302236
 H         -0.0946336330       -0.8977810601       -2.4795694467
 H          0.0081564918        1.5827396894       -0.3109222198
 H          1.0549778671        0.9831525822       -1.5807954155
 H          1.6147754587        1.0107172939        0.0921195121
