  92
 
 C         -6.1593884319       -3.3911902147       -3.0234421014
 C         -5.0123591575       -2.6177279276       -3.0584092785
 C         -4.0929243531       -2.6771121892       -2.0253635174
 C         -4.3088209481       -3.5061407781       -0.9271889769
 C         -5.4644720903       -4.3052645292       -0.9142823497
 C         -6.3793255827       -4.2413570807       -1.9519623188
 O         -5.7351052032       -5.1847628805        0.1004525575
 C         -4.8501062423       -5.2467939429        1.1436666663
 C         -5.1469237607       -6.1221513524        2.1745770423
 C         -4.3063195475       -6.2147614651        3.2721623587
 C         -3.1774926038       -5.4167068923        3.3403545711
 C         -2.8729633002       -4.5415409183        2.3121034793
 C         -3.6906286999       -4.4552924491        1.1880727345
 N         -3.4126999237       -3.5905888301        0.1346820616
 C         -2.2008374326       -2.8562700261        0.1173449437
 C         -0.9775750013       -3.5394205485        0.0401366071
 C          0.1876725793       -2.8227295718        0.0101838611
 C          0.1797232716       -1.4178689755        0.0352260269
 C         -1.0514344369       -0.7209435471        0.1076959693
 C         -2.2294529561       -1.4783392436        0.1623646046
 C         -1.0507459742        0.7219606542        0.1033194624
 C         -2.2280932809        1.4809105714        0.1516162664
 C         -2.1976769036        2.8585236869        0.0997990573
 N         -3.4084187641        3.5948871724        0.1150593254
 C         -3.6849681563        4.4610393606        1.1676088320
 C         -2.8664196086        4.5479672526        2.2909385668
 C         -3.1692267696        5.4250038988        3.3180815367
 C         -4.2971248255        6.2243320475        3.2493920857
 C         -5.1386749633        6.1309743474        2.1525812636
 C         -4.8436971518        5.2535896343        1.1228625649
 O         -5.7296920821        5.1905187551        0.0805182109
 C         -5.4603384454        4.3095917718       -0.9333285853
 C         -6.3760747442        4.2445879257       -1.9701401648
 C         -6.1569747511        3.3932755159       -3.0409081866
 C         -5.0099790911        2.6197412166       -3.0760658412
 C         -4.0898527113        2.6798297389       -2.0436551120
 C         -4.3049749504        3.5100053278       -0.9462142495
 C         -0.9736252520        3.5398968862        0.0199713488
 C          0.1908846017        2.8217792835       -0.0043732070
 C          0.1812501098        1.4171584976        0.0293054056
 C          1.4231616018        0.7084154228       -0.0200364037
 N          2.5731486405        1.3807961778       -0.0686549230
 C          3.7329477002        0.7171883456       -0.1058774796
 C          4.9552817960        1.3885293173       -0.1569042557
 C          6.1621817681        0.7007185945       -0.1993415279
 C          7.4068045136        1.4568557655       -0.3257404048
 C          8.3951078044        1.1375119197       -1.2636785289
 N          9.5192805960        1.8200845163       -1.3765196856
 C          9.6767953853        2.8508562100       -0.5629546289
 N          8.8047795305        3.2754901255        0.3344296771
 C          7.6829672726        2.5871699174        0.4496847690
 C          6.1617950794       -0.7085704778       -0.1782972582
 C          7.4101535081       -1.4671120956       -0.1206214832
 C          8.4429971164       -1.1546438209        0.7703171501
 N          9.5699598576       -1.8397647583        0.8250826712
 C          9.6858253676       -2.8660425518       -0.0010740253
 N          8.7703809140       -3.2844921654       -0.8570826999
 C          7.6454650097       -2.5938703622       -0.9141975744
 C          4.9540582857       -1.3951079932       -0.1453768236
 C          3.7317950827       -0.7223761606       -0.1098510565
 N          2.5713133287       -1.3845431579       -0.0743911050
 C          1.4222119165       -0.7107688800       -0.0200810624
 H         -6.8772665245       -3.3449425328       -3.8267130650
 H         -4.8224531573       -1.9641268991       -3.8953779255
 H         -3.1944458948       -2.0832416669       -2.0736429519
 H         -7.2537117573       -4.8705000111       -1.9007650995
 H         -6.0424147975       -6.7180847373        2.0977500818
 H         -4.5415504506       -6.9005875026        4.0703607310
 H         -2.5261106832       -5.4687848013        4.1988795545
 H         -1.9964503780       -3.9169973385        2.3792730706
 H         -0.9690191608       -4.6179558846       -0.0008626060
 H          1.1459528688       -3.3152422269       -0.0491962415
 H         -3.1895504750       -0.9933838506        0.2365114876
 H         -3.1889354408        0.9974858392        0.2261126396
 H         -1.9905535298        3.9225678844        2.3583949968
 H         -2.5172544853        5.4774976463        4.1761225025
 H         -4.5309298494        6.9117065716        4.0466719230
 H         -6.0335170343        6.7278441335        2.0755155353
 H         -7.2504409555        4.8737641728       -1.9189047720
 H         -6.8755178835        3.3462345143       -3.8435486683
 H         -4.8207315333        1.9655517115       -3.9127261999
 H         -3.1914790644        2.0857305543       -2.0916616966
 H         -0.9639215465        4.6181688802       -0.0271956460
 H          1.1497712977        3.3128529600       -0.0658154418
 H          4.9430834391        2.4673860075       -0.1927122310
 H          8.2672690230        0.3161551528       -1.9588342385
 H         10.6026382873        3.4040796596       -0.6486027180
 H          6.9831025245        2.9378082370        1.1982761233
 H          8.3498584414       -0.3367914456        1.4750954502
 H         10.6136461237       -3.4213257183        0.0365910060
 H          6.9088959549       -2.9397422860       -1.6290882450
 H          4.9434237133       -2.4739365589       -0.1069901048
