  86
 
 C          3.1695445657        3.7040049376       -0.4787125865
 O          3.1840980044        2.3014807393       -0.3235076078
 C          2.2527191417        1.5123366146       -0.8997090875
 C          1.1396154484        1.9593742769       -1.6108742364
 C          0.8487115416        3.3112334360       -1.8690986759
 N          0.4995144176        4.3772794948       -2.1242951873
 C          0.1726460043        1.0381030425       -2.1095177750
 C         -1.0034417587        1.5431048657       -2.8835646997
 C          0.3188643482       -0.2882413713       -1.8358665660
 C          1.4100024846       -0.7796819793       -1.0965449859
 C          1.4709043681       -2.1344630113       -0.6799515398
 Se         0.2970127734       -3.4378162698       -1.3614422279
 Se        -1.3001068448       -3.1623446462        1.2365760095
 C         -2.0264170615       -1.5771860164        0.5290398215
 C         -3.0569803133       -1.6370807311       -0.4079654397
 C         -3.4863237285       -2.9146234103       -1.0494887757
 N         -3.7703198765       -0.5638819805       -0.7068080808
 C         -3.5063152447        0.6231922753       -0.1806499324
 N         -4.4681071972        1.5684657596       -0.3344984298
 C         -5.5947652333        1.2508816782       -1.1853030216
 C         -6.6530816548        0.4315806487       -0.4289464119
 C         -6.6133691542        0.7955925729        1.0585877173
 C         -6.2472015998        2.2681317298        1.2118566577
 C         -4.8040655668        2.4960911983        0.7266602059
 C         -2.2559137945        0.8562684279        0.4869111486
 C         -1.6540635101        2.1347814698        0.6440195378
 O         -2.2939987874        3.1413043129        0.0115030254
 C         -1.9002703912        4.4895082781        0.1538746469
 C         -0.4578579828        2.2456373509        1.3522519463
 C          0.2220201676        3.4562877157        1.5726297655
 N          0.8662759961        4.3824764160        1.7979923489
 C          0.1854739727        1.0879495146        1.8800292327
 C          1.4646873343        1.2350422179        2.6415555251
 C         -0.3543175152       -0.1399674921        1.6395673667
 C         -1.5498789758       -0.2983905746        0.9148221510
 C          2.4309765904       -2.4871534411        0.2645049910
 C          2.4584504301       -3.8252963019        0.9249538067
 N          3.4296688703       -1.6687962746        0.5587554103
 C          3.5399057999       -0.4658663385        0.0181888451
 N          4.7370998489        0.1619863972        0.2090848139
 C          5.6459770055       -0.4261510376        1.1750858282
 C          6.5825046079        0.6497011299        1.7164766983
 C          7.3682960675        1.2865490540        0.5757258613
 C          6.3859858409        1.8475538916       -0.4462613794
 C          5.4419373981        0.7460598540       -0.9160991215
 C          2.4334572356        0.1157709057       -0.6888284634
 H          2.2989378326        4.1591447745       -0.0018379101
 H          4.0666445058        4.0582401662        0.0277107626
 H          3.2122421714        3.9929040020       -1.5316009652
 H         -1.6071339698        2.2158367664       -2.2743283196
 H         -1.6283829018        0.7136101229       -3.2049917695
 H         -0.6760861630        2.1026234437       -3.7596096602
 H         -0.4358979750       -0.9904018979       -2.1631180274
 H         -2.6319918178       -3.4187206715       -1.5026232394
 H         -3.9055759844       -3.5859995474       -0.2997117139
 H         -4.2372678306       -2.7096345567       -1.8067670806
 H         -5.2289638119        0.6989820381       -2.0498740128
 H         -6.0139412183        2.2024087117       -1.5221584256
 H         -6.4512647178       -0.6315109514       -0.5514722842
 H         -7.6371944656        0.6453856111       -0.8476061121
 H         -5.8616879676        0.1881074992        1.5678111953
 H         -7.5772791700        0.5906135027        1.5250564761
 H         -6.3232526666        2.5798776349        2.2540439279
 H         -6.9458313602        2.8736786358        0.6322505392
 H         -4.6903260051        3.5253524557        0.3708328891
 H         -4.1144694556        2.3391977224        1.5581478089
 H         -0.9421392062        4.6870623323       -0.3318176378
 H         -1.8549251203        4.7872371527        1.2039899155
 H         -2.6745396308        5.0649741459       -0.3529226907
 H          1.8097414106        0.2653919218        2.9918003346
 H          1.3295132478        1.8958640173        3.4975945967
 H          2.2403248185        1.6712893777        2.0120256636
 H          0.1576662867       -1.0282636573        1.9838114133
 H          3.2433009305       -3.8459471492        1.6750487561
 H          1.4954990562       -4.0400869626        1.3897581743
 H          2.6481299848       -4.6026554134        0.1845617435
 H          6.2306248202       -1.2325902480        0.7103799690
 H          5.0513682297       -0.8606454214        1.9781511410
 H          5.9907134139        1.4151993318        2.2213710504
 H          7.2587220181        0.2023571351        2.4461141522
 H          8.0030747542        0.5337249952        0.1021818318
 H          8.0134384683        2.0805373627        0.9551780246
 H          5.8032342487        2.6430969899        0.0157162873
 H          6.9152905212        2.2596386149       -1.3067933551
 H          6.0345153169       -0.0437737899       -1.4069923038
 H          4.7308166133        1.1280247128       -1.6461648879
