  65
 
 C         -6.1666144993       -1.7623162937       -0.0002088687
 C         -5.6430910792       -0.3145873709        0.0000036987
 C         -6.8198356799        0.6781132915        0.0001816392
 C         -4.8230194955       -0.0956294873       -1.2575391215
 C         -5.4229550417       -0.2399535478       -2.5009017837
 C         -4.7248933037       -0.0519148484       -3.6795708068
 C         -3.3862983745        0.2911583724       -3.6265456426
 C         -2.7641230143        0.4390764738       -2.4046732806
 C         -3.4683005849        0.2474370060       -1.2130330011
 N         -2.8146556160        0.3999185556        0.0000616881
 C         -1.4379319929        0.7470151295        0.0000706498
 C         -1.0797970864        2.1166782344        0.0000993299
 C          0.2293017106        2.4967080537        0.0000950311
 C          1.2458855365        1.5156952378        0.0000547329
 N          2.5319024893        1.8862707627        0.0000642568
 C          3.4513486936        0.9393775452        0.0000215768
 C          4.8470249746        1.3186875659        0.0000726045
 C          5.1839548715        2.6767860026        0.0001881378
 C          6.4960806983        3.0785701039        0.0002844709
 C          7.5026647130        2.1048467704        0.0002606356
 C          8.8618506168        2.4979730861        0.0003781410
 N          9.9624094671        2.8175293042        0.0004764850
 C          7.1824377855        0.7540421279        0.0001317294
 C          5.8520990505        0.3294943850        0.0000286274
 C          5.4841855309       -1.0813113579       -0.0001218189
 C          6.4377352317       -2.1015494037       -0.0002544158
 C          6.0572903203       -3.4366725319       -0.0003905499
 C          7.0517542603       -4.4431869555       -0.0004961341
 N          7.8572356799       -5.2583721273       -0.0007084891
 C          4.7034290417       -3.7947896234       -0.0004011677
 C          3.7546209794       -2.8033226885       -0.0002811806
 C          4.1241615920       -1.4537787111       -0.0001477514
 C          3.0911690296       -0.4411814470       -0.0000547509
 N          1.8270688208       -0.8190543325       -0.0000520028
 C          0.8852718144        0.1329740978        0.0000127778
 C         -0.4776040638       -0.2288636538        0.0000270189
 C         -3.4682527337        0.2470536272        1.2131340057
 C         -2.7640388373        0.4383488046        2.4048077410
 C         -3.3861705454        0.2900499224        3.6266565629
 C         -4.7247590656       -0.0530581430        3.6796239662
 C         -5.4228610761       -0.2407375319        2.5009220549
 C         -4.8229698724       -0.0960258990        1.2575830529
 H         -6.7730289162       -1.9554617071        0.8803645753
 H         -6.7730123578       -1.9552137567       -0.8808481417
 H         -5.3298443361       -2.4583969325       -0.0002983769
 H         -7.4423409100        0.5426909726        0.8801244015
 H         -6.4428486146        1.6992372922        0.0003012252
 H         -7.4424117476        0.5429212925       -0.8797465128
 H         -6.4670303656       -0.5080234818       -2.5582347448
 H         -5.2230632359       -0.1724559537       -4.6292910363
 H         -2.8226827684        0.4439171128       -4.5347859003
 H         -1.7185089839        0.7060012366       -2.3698771215
 H         -1.8714667828        2.8512121956        0.0001269319
 H          0.5217517086        3.5349712625        0.0001249677
 H          4.3787043158        3.3941833400        0.0002076784
 H          6.7617920332        4.1247724567        0.0003834220
 H          7.9939301550        0.0436889185        0.0001243085
 H          7.4928152522       -1.8781335166       -0.0002610376
 H          4.4242183751       -4.8374654022       -0.0004984274
 H          2.7015454813       -3.0358740016       -0.0002869541
 H         -0.7404413775       -1.2751949658       -0.0000015973
 H         -1.7184332096        0.7053127704        2.3700526883
 H         -2.8225291983        0.4425460447        4.5349249396
 H         -5.2228951615       -0.1738982667        4.6293240588
 H         -6.4669313011       -0.5088374165        2.5582088046
