  63
 
 C          3.6067960335       -0.9529650752       -3.5775063504
 C          2.2833219435       -0.6209917060       -3.3714104660
 C          1.7709926892       -0.5485700223       -2.0844088182
 C          2.5794380091       -0.8079886172       -0.9858689904
 C          3.9235454084       -1.1402311816       -1.2039634678
 C          4.4280035647       -1.2125040350       -2.4876860416
 O          4.7946219275       -1.4056741896       -0.1684937548
 C          4.2940560179       -1.3326885215        1.1141204020
 C          5.1679644596       -1.5933293670        2.1516187743
 C          4.7288026405       -1.5325237575        3.4682473822
 C          3.4143465881       -1.2085324912        3.7363227305
 C          2.5320898054       -0.9461834504        2.6984922940
 C          2.9567594502       -1.0062103075        1.3775988829
 N          2.0968743533       -0.7360057622        0.3172160764
 C          0.7186310079       -0.4752746667        0.5622020966
 C         -0.1254861135       -1.5796255807        0.5631663486
 C         -1.5341682843       -1.4726648380        0.6743211203
 C         -2.5952134048       -2.4212603092        0.3546972287
 C         -2.3265519344       -3.7901616923        0.2744325464
 C         -3.3036063941       -4.7031016070       -0.0570333487
 C         -4.5938371062       -4.2659747447       -0.3318412557
 C         -4.8908110628       -2.9221881126       -0.2709282954
 C         -3.9274192668       -1.9690840161        0.0717128348
 C         -4.2599522426       -0.5490221318        0.0994665453
 C         -5.3235592895        0.1755625516       -0.5208061686
 C         -5.2868530832        1.5414183350       -0.7017641595
 C         -4.1727464543        2.3352786539       -0.2906266932
 C         -3.7199139432        3.6185160809       -0.7246375347
 C         -2.4154830355        4.0313299666       -0.5601528511
 C         -1.4217354240        3.2176225610        0.0655304947
 C          0.0335054700        3.3002123967        0.0509915009
 C          0.6663548142        4.4983395007       -0.2909952477
 C          2.0380564875        4.6177105235       -0.3118455299
 C          2.8262450213        3.5240101769        0.0208228132
 C          2.2355393783        2.3240177740        0.3519763333
 C          0.8472902209        2.1592635919        0.3680368082
 C          0.2361847972        0.8663832396        0.6744790613
 C         -1.1189749234        0.9279318010        0.9265242629
 C         -1.9147358357        2.0722019948        0.6414452674
 C         -3.2451142468        1.6439426252        0.4708017877
 C         -3.2907114664        0.2497842501        0.6579914018
 C         -1.9688519345       -0.1921240885        0.9351524260
 H          4.0106961648       -1.0124696089       -4.5760191346
 H          1.6346131349       -0.4149294915       -4.2091366764
 H          0.7354957065       -0.2870312856       -1.9282079950
 H          5.4668016027       -1.4738170293       -2.6169470723
 H          6.1899294583       -1.8422380935        1.9113589371
 H          5.4196764275       -1.7374783339        4.2709979305
 H          3.0619114923       -1.1554305170        4.7550826859
 H          1.5052540497       -0.6897214227        2.9099278533
 H          0.3337519285       -2.5407268973        0.3765331447
 H         -1.3281008643       -4.1367436713        0.4970494793
 H         -3.0675264768       -5.7562943854       -0.1005163698
 H         -5.3634469082       -4.9788528830       -0.5893330214
 H         -5.8983198671       -2.5913626231       -0.4750635028
 H         -6.1561024446       -0.3681297465       -0.9443404502
 H         -6.0892189332        2.0117672956       -1.2538063321
 H         -4.3973712248        4.2527927423       -1.2801018301
 H         -2.1253562485        4.9757955257       -0.9980843181
 H          0.0553706473        5.3578230585       -0.5233557581
 H          2.4976401533        5.5596685369       -0.5728449140
 H          3.9029426325        3.6110673214        0.0269048312
 H          2.8676659266        1.4976617576        0.6325080661
