  97
 
 C          8.6019228310        6.4838169526       -0.7254313456
 C          7.4522327132        6.7276993489        0.2458038590
 C          6.3115750186        5.7322131326        0.0409851940
 C          5.1588016316        5.9765956476        1.0134027149
 C          3.9501902095        5.0727923314        0.7620197230
 C          4.2307181560        3.6003956116        1.0620535621
 C          2.9698794208        2.7366359936        1.0600031582
 C          2.3376384683        2.6322447248       -0.3291187353
 N          1.2074475615        1.7279557457       -0.3319159269
 C         -0.0986637156        2.1467870651       -0.1205715181
 O         -0.4026074036        3.3038521765        0.0767456197
 C         -0.9193947691        0.9312617749       -0.2131339693
 C         -2.2479813580        0.5787357341       -0.1731094508
 C         -3.4563646141        1.3482200225        0.0343967563
 C         -3.4161642302        2.7225879986        0.2881592910
 C         -4.5913448676        3.4250666019        0.4817463097
 C         -5.8187023055        2.7903356128        0.4180730778
 C         -5.8734159332        1.4188334308        0.1720040594
 N         -7.1066145080        0.7592835662        0.0998868145
 C         -7.5127296196       -0.0824298327       -0.9192485195
 C         -6.8558383624       -0.4373910906       -2.0891359075
 C         -7.5089288902       -1.2840276526       -2.9649770009
 C         -8.7892873651       -1.7632876404       -2.6957030025
 C         -9.4576325395       -1.3941330830       -1.5451465946
 C         -8.8215140781       -0.5439893356       -0.6492904122
 C         -9.2148800750        0.0481931507        0.5994242124
 C        -10.3618831843       -0.0386022109        1.3781841365
 C        -10.4087682827        0.6607867907        2.5679332729
 C         -9.3244321632        1.4266956545        2.9914341499
 C         -8.1726489406        1.5283585119        2.2340563318
 C         -8.1296120175        0.8481303108        1.0251845225
 C         -4.6968522925        0.7065417378       -0.0097669813
 S         -2.3783596452       -1.1460854136       -0.4488386738
 C         -0.6560512567       -1.3757355866       -0.6080071019
 C         -0.1344352005       -2.7034481572       -0.8605541273
 C         -0.9535015845       -3.6659366278       -1.4580826666
 C         -0.4701151045       -4.9363480892       -1.7011205560
 C          0.8220535408       -5.2739141403       -1.3409485008
 C          1.6407406583       -4.3325763664       -0.7169734144
 N          2.9302498862       -4.6983656393       -0.3119854796
 C          4.1036774908       -4.0114949390       -0.5706116347
 C          4.3058337209       -2.8349974512       -1.2774345490
 C          5.6029153124       -2.3755326663       -1.4068200687
 C          6.6815500837       -3.0694998275       -0.8625128851
 C          6.4887849450       -4.2524027371       -0.1772356104
 C          5.1935231242       -4.7324282135       -0.0304544258
 C          4.6433501902       -5.9029581589        0.5945554921
 C          5.2039543958       -6.9620179104        1.2972713252
 C          4.3680624879       -7.9377783177        1.8032459384
 C          2.9880838407       -7.8567420826        1.6294950114
 C          2.4078990921       -6.8131324614        0.9331104247
 C          3.2449093226       -5.8440993025        0.3971145545
 C          1.1643682337       -3.0473571585       -0.4847204420
 C         -0.0339431197       -0.1644849007       -0.4513953765
 C          1.3319383503        0.3606490773       -0.5352793673
 O          2.3844141654       -0.1978948881       -0.7529972892
 H          9.4017267852        7.2028040145       -0.5611313363
 H          8.2595088468        6.5805043633       -1.7539433645
 H          9.0076736657        5.4827263390       -0.5931377904
 H          7.0737607533        7.7439912372        0.1104760552
 H          7.8207822766        6.6466520152        1.2714130636
 H          6.6981230009        4.7202618230        0.1735920386
 H          5.9414993456        5.8167083176       -0.9839798679
 H          4.8382040219        7.0175861744        0.9203837074
 H          5.5120298415        5.8319889679        2.0373129341
 H          3.6353735441        5.1870401189       -0.2768032508
 H          3.1264316243        5.4078402690        1.3974748479
 H          4.9343100735        3.1971842566        0.3321715208
 H          4.6933902753        3.5249512215        2.0487863167
 H          2.2347184908        3.1505475289        1.7545454919
 H          3.2266425136        1.7284532237        1.3963098792
 H          1.9692084102        3.6054554489       -0.6589172837
 H          3.0680376375        2.2452353729       -1.0446171191
 H         -2.4710405437        3.2364437597        0.3294043731
 H         -4.5480787075        4.4866302597        0.6729006797
 H         -6.7340873632        3.3482807781        0.5420756880
 H         -5.8720443523       -0.0570397285       -2.3186232721
 H         -7.0172480310       -1.5768365829       -3.8812325119
 H         -9.2655203534       -2.4251346749       -3.4041973255
 H        -10.4565568675       -1.7517901683       -1.3448449311
 H        -11.1957555852       -0.6453521207        1.0581342841
 H        -11.2926585926        0.6090034140        3.1867323670
 H         -9.3838701242        1.9501127978        3.9346464527
 H         -7.3319525909        2.1102719567        2.5808464683
 H         -4.7476414092       -0.3590878516       -0.1774968100
 H         -1.9616852188       -3.4050083611       -1.7425455451
 H         -1.1014943734       -5.6689642257       -2.1801699436
 H          1.2085301976       -6.2599376726       -1.5481979747
 H          3.4842108234       -2.2822100034       -1.7037067604
 H          5.7813789755       -1.4555098738       -1.9440281068
 H          7.6801930488       -2.6759282141       -0.9848889650
 H          7.3241875242       -4.7978165741        0.2360438635
 H          6.2720713456       -7.0138673307        1.4472094779
 H          4.7841832832       -8.7709244097        2.3504841086
 H          2.3563572146       -8.6243571947        2.0523243503
 H          1.3357119429       -6.7528042955        0.8233043036
 H          1.7973392257       -2.3236832009        0.0021209083
