  46
 
 C         -0.4092814126       -5.2680488937        2.4722525087
 C         -0.7484641962       -4.4991175543        1.2014186446
 C          0.4306953864       -4.4851542728        0.2316941085
 C          0.1266271693       -3.7153105014       -1.0606938767
 N         -0.0642337498       -2.3120307822       -0.8128789561
 C          0.9530362817       -1.4218903211       -0.6029540990
 C          2.3348301880       -1.6110431736       -0.6372269614
 C          3.1479055826       -0.5307907712       -0.3942671939
 C          2.6301362487        0.7556598597       -0.1141973945
 C          3.4441437818        1.8924628780        0.1399449679
 C          4.8169777114        1.9857799218        0.1747179617
 C          5.4154273341        3.2333821066        0.4492736230
 N          5.8994805006        4.2500686493        0.6729270040
 C          5.7548156222        0.9606761140       -0.0338876381
 N          6.5760212969        0.1709465316       -0.1923959406
 C          1.2247579238        0.9337490642       -0.0863118275
 C          0.4069819429       -0.1379882930       -0.3274502632
 C         -1.0323689991       -0.2986351655       -0.3769068247
 C         -2.0674829752        0.5731352130       -0.1954117009
 C         -3.4118767687        0.0966513003       -0.3150256556
 C         -4.5345972675        0.9032644551       -0.1530110751
 C         -4.5835906374        2.2923036530        0.1459211837
 C         -5.8357128017        2.9010533703        0.2668405013
 N         -6.8760315380        3.3880385815        0.3621855865
 C         -3.5085618505        3.1546408414        0.3403164461
 N         -2.6600658728        3.9192892640        0.5126758181
 C         -3.6066026010       -1.2898240575       -0.6217227218
 C         -2.5725542599       -2.1602519937       -0.8025575381
 C         -1.2604650580       -1.6738968318       -0.6796662440
 H         -1.2578667033       -5.2718395668        3.1511819415
 H         -0.1515392896       -6.2985409383        2.2387572099
 H          0.4353295859       -4.8103420860        2.9820232967
 H         -1.0231966406       -3.4748709617        1.4639947639
 H         -1.6112703843       -4.9638044599        0.7186435229
 H          1.2962048348       -4.0346573828        0.7218731792
 H          0.6921869799       -5.5100904502       -0.0371093812
 H         -0.7761442201       -4.1140024958       -1.5275546699
 H          0.9583253544       -3.8317561733       -1.7615838469
 H          2.7670431138       -2.5763803485       -0.8502718015
 H          4.2156183858       -0.6704360906       -0.4197043149
 H          2.9122544160        2.8167443120        0.3335030478
 H          0.8089615487        1.9076647058        0.1234848177
 H         -1.8778214935        1.6069372769        0.0349175590
 H         -5.5039993654        0.4349665883       -0.2647520101
 H         -4.6219201440       -1.6455236274       -0.7119021464
 H         -2.7657189581       -3.1967335197       -1.0323559602
