  71
 
 N         -0.0000036071       -1.1112528470        0.6994705400
 C          0.0000296774        0.0266258533        0.5320754649
 C          0.0000102038        1.4296174184        0.4417160892
 C         -1.2044556019        2.1680357418        0.4709606841
 C         -2.5169062943        1.5495134829        0.3176001651
 C         -3.6176380715        2.1100238118        0.9705827176
 C         -4.8665214777        1.5403451921        0.8582980027
 C         -5.0518072228        0.4049907831        0.0668186071
 N         -6.3110100059       -0.1812119974       -0.0484986942
 C         -7.4972807109        0.4827657550       -0.3138841144
 C         -7.7197619098        1.8265639820       -0.5782083785
 C         -9.0144401434        2.2245940639       -0.8563892082
 C        -10.0666032914        1.3121687061       -0.8827274603
 C         -9.8464417258       -0.0310936522       -0.6485026147
 C         -8.5537615076       -0.4543306351       -0.3681089465
 C         -7.9721224376       -1.7444098230       -0.1144364803
 C         -8.4997164400       -3.0257791638       -0.0215318184
 C         -7.6463554801       -4.0735137386        0.2642406554
 C         -6.2872260208       -3.8522445460        0.4743727522
 C         -5.7396691726       -2.5854952707        0.3875528554
 C         -6.5871792055       -1.5335183030        0.0705766956
 C         -3.9616412895       -0.1349410066       -0.6173631356
 C         -2.7103645724        0.4281048257       -0.4907033641
 N         -1.1765615172        3.4877223150        0.6571471506
 C          0.0000401954        4.0654044058        0.7795043380
 N          1.1766282257        3.4876956942        0.6571315179
 C          1.2044835306        2.1680098413        0.4709511418
 C          2.5169236868        1.5494524153        0.3176015281
 C          2.7103946676        0.4281202690       -0.4908029433
 C          3.9616736970       -0.1349240871       -0.6174703589
 C          5.0518150871        0.4049349496        0.0668061395
 N          6.3110196098       -0.1812695544       -0.0485191920
 C          7.4972901462        0.4827002042       -0.3139107854
 C          7.7197660595        1.8264941806       -0.5782569327
 C          9.0144352180        2.2245123757       -0.8564938150
 C         10.0665955972        1.3120836867       -0.8828318390
 C          9.8464421473       -0.0311705607       -0.6485536566
 C          8.5537668938       -0.4544024381       -0.3681284368
 C          7.9721178107       -1.7444784421       -0.1144604910
 C          8.4996896527       -3.0258582303       -0.0215750309
 C          7.6463056316       -4.0735874865        0.2641508082
 C          6.2871735061       -3.8523072549        0.4742613850
 C          5.7396399239       -2.5855456256        0.3874749028
 C          6.5871757550       -1.5335754723        0.0705458009
 C          4.8665142142        1.5402031896        0.8584029832
 C          3.6176281931        2.1098760737        0.9707026304
 H         -3.4657157046        2.9840832876        1.5846053919
 H         -5.7032295867        1.9554971732        1.3987431151
 H         -6.9105289238        2.5406083377       -0.5828273496
 H         -9.2126476542        3.2662226770       -1.0626296777
 H        -11.0645821829        1.6626144262       -1.1011925730
 H        -10.6579856583       -0.7419641187       -0.6886912314
 H         -9.5564038234       -3.1940083203       -0.1652600619
 H         -8.0355417902       -5.0783564505        0.3375970709
 H         -5.6457169204       -4.6872852993        0.7151321713
 H         -4.6882636322       -2.4259719472        0.5730511082
 H         -4.1077409664       -0.9843585256       -1.2666490916
 H         -1.8866919792        0.0153148477       -1.0536928069
 H          0.0000563663        5.1303897178        0.9766778494
 H          1.8867339407        0.0153830830       -1.0538502611
 H          4.1077942973       -0.9842905282       -1.2668191337
 H          6.9105325684        2.5405397292       -0.5828352989
 H          9.2126447552        3.2661385932       -1.0627451498
 H         11.0645678760        1.6625212110       -1.1013409419
 H         10.6579841610       -0.7420428597       -0.6887543709
 H          9.5563796600       -3.1941006928       -0.1652649445
 H          8.0354804470       -5.0784333687        0.3375222904
 H          5.6456503304       -4.6873428587        0.7150022393
 H          4.6882320321       -2.4260042459        0.5729466160
 H          5.7032144762        1.9553055787        1.3988996130
 H          3.4656912870        2.9838904721        1.5847855684
