  161
 
 C        -12.9823421841        1.9316693330       -4.6269044452
 C        -12.8949884378        2.5425198159       -3.2209183456
 C        -14.3039121457        2.5569392713       -2.6214275667
 C        -12.4032954320        3.9939514392       -3.3139872909
 C        -11.9123564734        1.7339824635       -2.3868375668
 C        -10.5808301212        1.6392329688       -2.8144577625
 C         -9.6202523798        0.9284075591       -2.1248250400
 C         -9.9989621781        0.2898515989       -0.9533027766
 C        -11.3386597582        0.3503768334       -0.5124038988
 C        -12.2841032436        1.0729115550       -1.2262988818
 C        -11.4097632806       -0.4491883540        0.6805087764
 C        -12.4383553947       -0.7426749790        1.5645051137
 C        -12.1883673194       -1.5403868093        2.6705044854
 C        -13.2664006045       -1.9025571448        3.6812635833
 C        -14.6322946140       -1.3102829745        3.3232294223
 C        -12.8622539488       -1.3657607141        5.0618629327
 C        -13.4109175285       -3.4299416182        3.7389042621
 C        -10.8861825803       -2.0190268721        2.8706276317
 C         -9.8448395780       -1.7429743212        2.0087077133
 C        -10.1123443466       -0.9631838558        0.8933345083
 N         -9.2667801020       -0.5084717609       -0.0980901123
 C         -7.9083853162       -0.8093887679       -0.2187052775
 C         -7.4648674364       -2.1332006837       -0.1413793911
 C         -6.1316049251       -2.4291671528       -0.2752937981
 C         -5.1664206469       -1.4193444635       -0.4687528974
 C         -3.7689370903       -1.7272258736       -0.6028137368
 C         -3.3384801271       -2.9798649364       -1.1193409492
 C         -2.0209847205       -3.2904881258       -1.2862235105
 C         -1.0330502912       -2.3536668555       -0.9070133149
 C         -1.4570100867       -1.0962430521       -0.3661838488
 C         -2.7714104686       -0.7837760665       -0.2327869258
 C         -0.2548101313       -0.2514697523       -0.0110846162
 C          0.8876998226       -1.1827443731       -0.3955930956
 C          2.2182205330       -0.9667099637       -0.2669026419
 C          3.1480203921       -1.9413652226       -0.7200851581
 C          4.5560468165       -1.6984051661       -0.5995214029
 C          5.0640388501       -0.8509880237        0.4102695758
 C          6.4017676860       -0.5706654372        0.5090170405
 C          7.3118805600       -1.1121430876       -0.4064542960
 N          8.6661341391       -0.7916972236       -0.3246075333
 C          9.1817954267        0.4746119939       -0.1270004219
 C          8.5399097029        1.7012228953       -0.0366396019
 C          9.3150948005        2.8281196662        0.1447468531
 C         10.7135303685        2.7855358876        0.2293277812
 C         11.4761233449        4.0830780693        0.4519855722
 C         11.0086018096        4.7208716379        1.7682277427
 C         11.1992105658        5.0392484469       -0.7168190369
 C         12.9894224868        3.8680273868        0.5421069348
 C         11.3468036491        1.5598418073        0.0950749738
 C         10.5913537067        0.4103238182       -0.0878582994
 C         10.9400740249       -0.9713277298       -0.2761941089
 C         12.1543758047       -1.6411034925       -0.3237699026
 C         12.1752016911       -3.0158654910       -0.4997483816
 C         13.4682174034       -3.8133307220       -0.5810314756
 C         14.7131322985       -2.9289640827       -0.4682609572
 C         13.5234865551       -4.5414928739       -1.9317124227
 C         13.5049918129       -4.8360017602        0.5633870708
 C         10.9534247848       -3.6958706337       -0.5970427810
 C          9.7321510398       -3.0553536141       -0.5522644258
 C          9.7240844357       -1.6749425595       -0.4160361782
 C          6.8329151401       -1.9724370369       -1.4014990205
 C          5.4953067702       -2.2651295358       -1.4870105658
 C          2.6271424885       -3.1338797075       -1.2942028314
 C          1.2880012248       -3.3749064310       -1.3891756387
 C          0.3682367764       -2.3985287852       -0.9392400228
 C         -0.1339122985        0.0581718047        1.4601255435
 C         -0.6612393778       -0.8034826101        2.4069181982
 C         -0.4214700601       -0.6152643886        3.7568239655
 C          0.3850675778        0.4331473591        4.1637196806
 C          0.9119882306        1.3091879192        3.2352986731
 C          0.6390402323        1.1515760637        1.8756511253
 N          1.1279177844        2.0495813931        0.9352749336
 C          2.0936703673        3.0236879529        1.3036328970
 C          3.4017363802        2.8806676774        0.8558738978
 C          4.3594685011        3.8134874162        1.2107125789
 C          4.0175427620        4.8925982772        2.0081650619
 C          2.7115189780        5.0436644073        2.4441639604
 C          1.7481935306        4.1150623966        2.0927423837
 C          0.6066428874        2.0821599499       -0.3511595602
 C          0.7971054526        3.2027021975       -1.1612367454
 C          0.2503104560        3.2517438882       -2.4280255485
 C         -0.5029210966        2.1922406063       -2.9039452212
 C         -0.6922125616        1.0766908422       -2.1068557215
 C         -0.1454803459        1.0060146814       -0.8365145798
 C         -5.6343480461       -0.0902101578       -0.5285640998
 C         -6.9695964886        0.2071887697       -0.4197241754
 H        -13.3067096556        0.8948244093       -4.5660502251
 H        -13.6993872008        2.4832293891       -5.2315543460
 H        -12.0208317206        1.9577698849       -5.1318806956
 H        -14.3014449674        2.9973991880       -1.6270274287
 H        -14.9597142739        3.1544054229       -3.2517450027
 H        -14.7163486316        1.5521178290       -2.5666753102
 H        -13.1038367372        4.5905119060       -3.8947870436
 H        -11.4292999228        4.0539809813       -3.7913414430
 H        -12.3224305973        4.4272848535       -2.3191736843
 H        -10.2815170096        2.1347015107       -3.7254290757
 H         -8.6095573168        0.8628626018       -2.4983762436
 H        -13.2976368928        1.0974374030       -0.8621889442
 H        -13.4162025341       -0.3335194523        1.3725727814
 H        -14.9754771044       -1.6740576642        2.3574575237
 H        -14.5946828539       -0.2235500999        3.3034695708
 H        -15.3634357668       -1.6067002852        4.0728338717
 H        -11.9291868135       -1.8060917811        5.4019592741
 H        -13.6336814355       -1.5955174064        5.7940371749
 H        -12.7342655377       -0.2859471134        5.0218723469
 H        -14.1902006427       -3.7063598059        4.4462056630
 H        -12.4852443140       -3.9053175764        4.0508318372
 H        -13.6801396151       -3.8186242343        2.7589030244
 H        -10.6735808342       -2.6269051187        3.7367815793
 H         -8.8508978930       -2.1133766899        2.2093113378
 H         -8.1868199670       -2.9240442587        0.0016344278
 H         -5.8160227298       -3.4585578925       -0.2000510917
 H         -4.0875236436       -3.6908856715       -1.4351697881
 H         -1.7258732276       -4.2403464815       -1.7072287203
 H         -3.0598748237        0.1637280780        0.1981556140
 H          2.5819686800       -0.0361145159        0.1381545806
 H          4.3930278104       -0.4550772082        1.1577482895
 H          6.7691237322        0.0449706923        1.3170930064
 H          7.4665785583        1.7803781711       -0.1203245972
 H          8.8106741127        3.7797163201        0.2185386761
 H         11.1800171985        4.0378763295        2.5977824441
 H          9.9497138146        4.9620378684        1.7394634756
 H         11.5611445442        5.6390018979        1.9569965714
 H         10.1427466595        5.2817610051       -0.7902595194
 H         11.5099195085        4.5846143445       -1.6552465646
 H         11.7527077074        5.9662796406       -0.5819614226
 H         13.4815829728        4.8230966732        0.7151309213
 H         13.3818179174        3.4521501417       -0.3829611434
 H         13.2415745421        3.2059798853        1.3673305084
 H         12.4199811486        1.4722734694        0.1252052708
 H         13.0623253366       -1.0711332295       -0.2180491652
 H         15.6051618235       -3.5478043748       -0.5431663726
 H         14.7422704438       -2.4140191440        0.4892168210
 H         14.7454353274       -2.1951864062       -1.2703780986
 H         12.6965230179       -5.2372507068       -2.0422314605
 H         14.4525963396       -5.1010773650       -2.0184274557
 H         13.4755266583       -3.8230385445       -2.7475311568
 H         13.4433992344       -4.3275146708        1.5233776501
 H         14.4339698745       -5.4015632831        0.5307309137
 H         12.6779801011       -5.5372467268        0.4965458976
 H         10.9533507793       -4.7694190521       -0.7082628004
 H          8.8146165854       -3.6209196328       -0.6076436226
 H          7.5231678666       -2.3734048580       -2.1290024902
 H          5.1488287278       -2.8990627460       -2.2888197780
 H          3.3224567835       -3.8924708113       -1.6228424304
 H          0.9227909090       -4.3035688546       -1.8027613549
 H         -1.2552415404       -1.6425737775        2.0763136115
 H         -0.8410445894       -1.2960352479        4.4814136306
 H          0.6080856660        0.5740586130        5.2109694922
 H          1.5455279377        2.1171707195        3.5675203885
 H          3.6633040905        2.0428515371        0.2260177150
 H          5.3756372132        3.6951688989        0.8650466764
 H          4.7666210130        5.6185691386        2.2864855694
 H          2.4401320228        5.8900373270        3.0575492389
 H          0.7254365773        4.2312655419        2.4204901487
 H          1.3720942003        4.0384579646       -0.7912531878
 H          0.4104463398        4.1254488339       -3.0422041927
 H         -0.9336802153        2.2291228746       -3.8928100677
 H         -1.2653105256        0.2399932934       -2.4779217942
 H         -4.9322114910        0.7124164089       -0.6953373216
 H         -7.3046548883        1.2332024076       -0.4663236768
