  84
 
 C          8.2295126310       -0.3222223466       -1.2883178362
 C          7.3755492807       -0.0849023134       -0.0285378081
 C          8.2833437458        0.1560762871        1.1925710240
 C          6.5183199173        1.1462565843       -0.2539438389
 C          7.1318056674        2.3612532556       -0.5310036549
 C          6.4072286220        3.5110314333       -0.7843761115
 C          5.0252660672        3.4508900106       -0.7828623574
 C          4.3903232272        2.2579775307       -0.5066547250
 C          5.1208561502        1.1013972619       -0.2160034528
 N          4.4523753672       -0.0837353215        0.0705920328
 C          3.0397209431       -0.0721188228        0.1537918696
 C          2.4082546304        0.5827155644        1.2076755567
 C          1.0310309795        0.6070985852        1.2845164222
 C          0.2610462004       -0.0415947739        0.3212360283
 C         -1.2037477794       -0.0187932757        0.4119027367
 C         -1.9552669075       -1.2009092829        0.3767162114
 C         -1.3310898031       -2.4623604854        0.2978508397
 N         -0.8387446239       -3.4981628818        0.2446091684
 C         -3.3614125879       -1.1156557669        0.4181311313
 C         -4.1826417136       -2.3404360671        0.3725790024
 C         -4.1139381764       -3.2236170043        1.4231578748
 C         -4.9194727899       -4.3694577079        1.4484572216
 C         -5.7847512402       -4.6255594317        0.4221240357
 C         -5.8659335309       -3.7566813152       -0.6862039960
 C         -6.7328258803       -4.0156671392       -1.7693542349
 C         -6.7756870817       -3.1790442102       -2.8490951017
 C         -5.9426975779       -2.0509162713       -2.8999271113
 C         -5.0961558727       -1.7689805526       -1.8640420255
 C         -5.0473628292       -2.5967175694       -0.7230606469
 N         -3.9893002365        0.0389466054        0.5497963371
 C         -3.3103068315        1.1738808838        0.6478666879
 C         -4.0448633453        2.4139233313        0.9189213980
 C         -3.5373055021        3.2665859298        1.8780333294
 C         -4.1788714568        4.4666469240        2.1983406800
 C         -5.3294566848        4.8216600259        1.5510625330
 C         -5.8928442960        3.9785588265        0.5712427547
 C         -7.0828412094        4.3362885419       -0.0983345108
 C         -7.6289874196        3.5169706635       -1.0455004369
 C         -7.0039151901        2.3025447332       -1.3637165014
 C         -5.8464466881        1.9301325235       -0.7368966504
 C         -5.2584507537        2.7469028159        0.2498485647
 C         -1.9003415824        1.1909659937        0.5382294435
 C         -1.1947396062        2.4090468158        0.4382361686
 N         -0.6147581919        3.3892722870        0.2914115841
 C          0.8946623406       -0.7077073102       -0.7253891895
 C          2.2719246911       -0.7132869336       -0.8144370190
 C          5.1364917245       -1.2728329850        0.2972407899
 C          4.4271171384       -2.4329032299        0.6238617576
 C          5.0786028270       -3.6286723091        0.8434853192
 C          6.4574649098       -3.6885624258        0.7519194802
 C          7.1635977952       -2.5360339035        0.4617923740
 C          6.5334944773       -1.3187260796        0.2370721368
 H          8.8560142633       -1.2020638960       -1.1724825122
 H          7.5829315309       -0.4713658133       -2.1515338301
 H          8.8738232838        0.5296292563       -1.4863573392
 H          7.6751698711        0.3015972967        2.0839558976
 H          8.8987932286        1.0397815246        1.0489708430
 H          8.9396902558       -0.6931433540        1.3608430263
 H          8.2095138555        2.4168557322       -0.5536606600
 H          6.9169682247        4.4397596263       -0.9924197026
 H          4.4353642429        4.3294587839       -0.9990556126
 H          3.3117153702        2.2229566966       -0.5223495786
 H          3.0038021035        1.0757633078        1.9610237746
 H          0.5494614526        1.1094470915        2.1107253290
 H         -3.4486832149       -3.0240234495        2.2517260848
 H         -4.8504280930       -5.0402479038        2.2915086717
 H         -6.4146737629       -5.5028931808        0.4408318703
 H         -7.3574166743       -4.8963631874       -1.7301604003
 H         -7.4414696256       -3.3845795800       -3.6742177884
 H         -5.9695974165       -1.4083397037       -3.7678895535
 H         -4.4440093329       -0.9088161587       -1.9171582364
 H         -2.6420782498        2.9964624871        2.4203188157
 H         -3.7531475551        5.1039307465        2.9584983480
 H         -5.8278824432        5.7508509386        1.7856410755
 H         -7.5526391173        5.2756215448        0.1553499673
 H         -8.5405286845        3.7966942285       -1.5526430077
 H         -7.4435509743        1.6581278911       -2.1105407747
 H         -5.3838031116        0.9880874646       -0.9787295025
 H          0.3055280572       -1.1980217694       -1.4865929412
 H          2.7615329065       -1.2172255271       -1.6340912682
 H          3.3522314033       -2.3988503423        0.7136281425
 H          4.5042104389       -4.5097653956        1.0892269163
 H          6.9798232193       -4.6188967083        0.9168417194
 H          8.2405026032       -2.5911923447        0.4141729414
