  94
 
 C         -2.8884394390       -5.3983068037       -2.9172920878
 C         -3.2161963940       -4.1153835952       -2.2178179570
 C         -4.5021122573       -3.5751134679       -2.3015027799
 C         -4.8259623920       -2.3978107449       -1.6672008718
 C         -3.8645142414       -1.7132556490       -0.9123477278
 N         -4.1733733963       -0.5100735675       -0.2795073741
 C         -5.4387811798       -0.3060965040        0.2710835637
 C         -6.0345691530        0.9611452827        0.2303438969
 C         -7.2774555422        1.1633692836        0.7852236677
 C         -7.9743521935        0.1221123550        1.4020956470
 C         -9.3213920462        0.3664390059        2.0090058003
 C         -7.3752196623       -1.1348799269        1.4430542765
 C         -6.1307242254       -1.3533641446        0.8925819950
 C         -3.2099714070        0.4857371562       -0.1857637567
 C         -2.3080989141        0.7327214751       -1.2494390548
 C         -1.3616266933        1.7113614105       -1.1448326690
 C         -1.2269351905        2.5071909090        0.0133495411
 C         -0.0808891822        3.4930077054        0.1314096743
 C          1.0644400146        2.5044260439        0.1651689125
 C          1.2744063767        1.6955707942        1.3028681454
 C          2.2191588668        0.7098180297        1.3328961450
 C          3.0402351486        0.4625295322        0.2053334335
 N          4.0096772552       -0.5302992467        0.2280434498
 C          5.2254329726       -0.3304964314       -0.4253945750
 C          5.8704659998       -1.3863118303       -1.0834001946
 C          7.0622944486       -1.1732112558       -1.7371265232
 C          7.6577373632        0.0902088540       -1.7679353975
 C          8.9506854244        0.3007388137       -2.4935229685
 C          7.0101934633        1.1367289241       -1.1147342675
 C          5.8171058363        0.9392872808       -0.4545091335
 C          3.7567987842       -1.7293108671        0.8937292791
 C          4.7755551271       -2.3961967188        1.5869092326
 C          4.5097280092       -3.5712058994        2.2512828494
 C          3.2274789370       -4.1274238950        2.2582531147
 C          2.9617610881       -5.4057604151        2.9915927220
 C          2.2179042338       -3.4579906845        1.5706366521
 C          2.4683714384       -2.2814205437        0.8985054861
 C          2.8285357728        1.2480891285       -0.9442760196
 C          1.8647582594        2.2189784944       -0.9662172087
 C         -0.0677630435        4.4694676669       -1.0596361666
 C          1.0990841190        5.4526127345       -1.0010030811
 C          1.0559166170        6.2610356413        0.2894543075
 C          1.0477183622        5.3109745315        1.4802025015
 C         -0.1424221469        4.3582017145        1.4017387620
 C         -2.1242270561        2.2403946542        1.0720958233
 C         -3.0908730077        1.2761266840        0.9733989555
 C         -2.5734512836       -2.2513844506       -0.8235668409
 C         -2.2638140720       -3.4294380585       -1.4680862699
 H         -1.8383443880       -5.6513081278       -2.7947574292
 H         -3.4916181646       -6.2139147459       -2.5175222248
 H         -3.1067460231       -5.3184662720       -3.9820992492
 H         -5.2535295335       -4.0887333074       -2.8842845665
 H         -5.8200617420       -1.9844233556       -1.7576479803
 H         -5.5128766803        1.7720372730       -0.2571162242
 H         -7.7279557620        2.1446097163        0.7357521555
 H         -9.9660117862        0.8977089870        1.3099397257
 H         -9.2262530873        0.9826001551        2.9041521189
 H         -9.7995714849       -0.5696994602        2.2862847519
 H         -7.8916510379       -1.9546424863        1.9223596901
 H         -5.6737788707       -2.3307617931        0.9471199172
 H         -2.3973408230        0.1519755390       -2.1563643063
 H         -0.6900749389        1.8685761897       -1.9754924628
 H          0.6672543374        1.8487762436        2.1823857541
 H          2.3699193295        0.1239240169        2.2282796790
 H          5.4148198669       -2.3659613739       -1.0834055374
 H          7.5447470729       -1.9968041696       -2.2441978297
 H          8.8124121130        0.1518781938       -3.5650943723
 H          9.7002051662       -0.4141959558       -2.1554443385
 H          9.3286402562        1.3070853707       -2.3315816957
 H          7.4548098783        2.1219948580       -1.1173754849
 H          5.3352371046        1.7568577122        0.0616111157
 H          5.7684851220       -1.9705586569        1.6053774522
 H          5.3050436467       -4.0709326023        2.7859051548
 H          3.6160675581       -6.1978873630        2.6276934441
 H          1.9289812909       -5.7201041017        2.8638981302
 H          3.1572403011       -5.2804360471        4.0569364550
 H          1.2192051460       -3.8716542663        1.5558461901
 H          1.6802431810       -1.7817908617        0.3543949636
 H          3.4254437052        1.0567723308       -1.8253093318
 H          1.7279608596        2.7747511543       -1.8800592203
 H         -1.0071761283        5.0292397686       -1.0314367504
 H         -0.0493842204        3.9323239369       -2.0072933245
 H          1.0536782414        6.1200714103       -1.8655843873
 H          2.0440243584        4.9078172425       -1.0449696231
 H          1.9188568467        6.9287556612        0.3445674889
 H          0.1526407702        6.8764858317        0.3083039507
 H          0.9972902764        5.8786491473        2.4127645530
 H          1.9725706686        4.7286612222        1.4892950850
 H         -1.0682491080        4.9389758558        1.3855625781
 H         -0.1496838135        3.7399706622        2.2983710472
 H         -2.0671361396        2.8107800508        1.9852075209
 H         -3.7642722956        1.0968936447        1.8000549379
 H         -1.8301055962       -1.7387470441       -0.2307989910
 H         -1.2635803972       -3.8305116671       -1.3820175036
