78

C     -2.975231    5.934527   -1.265426
C     -3.522146    5.243091   -0.011219
C     -5.019360    5.221555   -0.077562
C     -3.066070    6.036090    1.176685
C     -2.971350    3.856143   -0.026511
C     -3.602553    2.807340   -0.624812
C     -3.030865    1.540671   -0.600536
C     -1.828544    1.274874    0.010853
N     -1.244364   -0.027061    0.059560
C      0.179695   -0.076682    0.122081
C      0.871466   -1.085952    0.758338
C      2.258908   -1.137463    0.794707
C      3.006021   -0.155196    0.179949
B      4.558051   -0.137847    0.173740
O      5.318795   -0.082621   -1.076463
C      6.602115   -0.553662   -0.715691
C      7.576520    0.094227   -1.647642
C      6.536776   -2.049167   -0.838602
C      6.702806   -0.068388    0.712719
C      6.845839    1.423991    0.688417
C      7.791703   -0.741719    1.484737
O      5.472163   -0.404884    1.270311
C      2.343054    0.862102   -0.461082
C      0.965828    0.901443   -0.490140
C     -2.026053   -1.217798    0.065866
C     -3.319200   -1.273314    0.536792
C     -4.082171   -2.427518    0.522960
C     -3.563378   -3.589796    0.026248
C     -4.317045   -4.870201   -0.023657
C     -4.068255   -5.610007    1.255560
C     -3.857563   -5.752485   -1.161227
C     -5.782869   -4.540133   -0.118673
C     -2.273069   -3.577465   -0.454703
C     -1.510119   -2.409275   -0.437546
C     -1.202696    2.369784    0.617164
C     -1.768734    3.631893    0.594623
H     -1.859836    5.860446   -1.183578
H     -3.241976    5.345456   -2.166822
H     -3.327083    6.968209   -1.335509
H     -5.294054    5.174045   -1.153762
H     -5.418484    4.283770    0.377896
H     -5.450618    6.130073    0.350395
H     -2.117175    6.571342    1.014404
H     -3.001147    5.414896    2.096615
H     -3.840111    6.805816    1.376491
H     -4.547975    2.994841   -1.110322
H     -3.581887    0.765346   -1.097824
H      0.354354   -1.876692    1.262228
H      2.786573   -1.949714    1.306382
H      8.477889    0.486907   -1.128059
H      7.873384   -0.674704   -2.411716
H      7.107298    0.907274   -2.273635
H      5.821876   -2.393298   -0.047814
H      6.032436   -2.275628   -1.809544
H      7.510656   -2.541276   -0.761705
H      7.890296    1.735917    0.483748
H      6.165921    1.849322   -0.050367
H      6.531008    1.807899    1.674583
H      7.391913   -1.317361    2.344781
H      8.423901   -1.408118    0.869045
H      8.432283    0.062935    1.929188
H      2.922987    1.651835   -0.955273
H      0.524450    1.737913   -1.025705
H     -3.794520   -0.395709    0.950560
H     -5.102846   -2.410519    0.910219
H     -2.991096   -5.790144    1.445621
H     -4.661425   -6.538054    1.230101
H     -4.417871   -4.999414    2.106798
H     -3.000333   -6.336038   -0.805890
H     -4.726072   -6.390493   -1.429031
H     -3.595803   -5.167623   -2.070391
H     -5.876287   -3.674412   -0.833539
H     -6.380239   -5.399286   -0.483593
H     -6.126127   -4.175758    0.869651
H     -1.853299   -4.493296   -0.850096
H     -0.518033   -2.498326   -0.840768
H     -0.259450    2.281045    1.134268
H     -1.261584    4.461480    1.072147
