  110
 
 C          2.9213821857       -3.5942950275       -0.2124627910
 C          1.9497966333       -3.3278137320       -1.1622104846
 C          1.2178569453       -2.1564124462       -1.0991613618
 C          1.4493570306       -1.2337004592       -0.0841517493
 C          0.7004896961        0.0404328301       -0.0408481241
 C         -0.6940278354        0.0382740409        0.0168448138
 C         -1.4396140965       -1.2383266266        0.0363066319
 C         -2.4072047481       -1.5054696969       -0.9282148064
 C         -3.1358466457       -2.6795087979       -0.8852865110
 C         -2.9046079294       -3.6052966254        0.1187387373
 C         -1.9336308624       -3.3545240660        1.0733871235
 C         -1.2051304350       -2.1799823337        1.0330714449
 C         -1.3939148296        1.2502451006        0.0631973702
 C         -2.8675565466        1.2265846195        0.1068402976
 C         -3.6187805598        1.8575352905       -0.8798686718
 C         -4.9921727942        1.7166051822       -0.9120131332
 C         -5.6462101187        0.9380580663        0.0383680792
 C         -7.0862455006        0.6654450648       -0.0630656391
 C         -8.0327233788        1.6615550571       -0.2591856977
 C         -9.3912060753        1.3729278496       -0.3515317297
 C         -9.8559797884        0.0750958952       -0.2675314304
 C         -8.9338203994       -0.9496492631       -0.0928070112
 C         -7.5570327043       -0.6467045409        0.0116743063
 N         -6.8506615972       -1.8150503830        0.1491343083
 C         -7.7225176911       -2.8726052011        0.1370808617
 C         -7.4651579540       -4.2308652573        0.2432812578
 C         -8.5435515684       -5.0936437592        0.2085740106
 C         -9.8472601320       -4.6201012490        0.0719653114
 C        -10.1089091772       -3.2685844523       -0.0349440639
 C         -9.0418168021       -2.3800407237       -0.0028813106
 C         -4.8986953751        0.3692161891        1.0679669488
 C         -3.5281826696        0.5141461483        1.1035793859
 C         -0.6969825885        2.4571427953        0.0421687103
 C         -1.4129124977        3.7468668755        0.0754074239
 C         -2.3123974101        4.0466678210        1.0966851130
 C         -2.9388477270        5.2787516669        1.0854233903
 C         -2.6534827688        6.1671481082        0.0596681670
 C         -1.7469330354        5.7713324243       -0.9106069102
 N         -1.1435260954        4.5980539685       -0.9091398227
 C          0.6974157184        2.4594054101       -0.0233579063
 C          1.4113244739        3.7505500148       -0.0330862777
 C          2.3173491396        4.0666986359       -1.0436651868
 C          2.9443273159        5.2980576357       -1.0082340770
 C          2.6522430454        6.1700372630        0.0296360737
 C          1.7383843038        5.7593775644        0.9868125414
 N          1.1350548154        4.5863279818        0.9627055559
 C          1.3973315150        1.2547480255       -0.0644217699
 C          2.8711649193        1.2356831878       -0.1027629542
 C          3.6156619417        1.8488138482        0.9001898510
 C          4.9890228297        1.7091985455        0.9377298573
 C          5.6493611670        0.9495529698       -0.0234377559
 C          7.0881247948        0.6723362522        0.0838213167
 C          8.0367897355        1.6617716236        0.3011742581
 C          9.3933383248        1.3659976625        0.4000758041
 C          9.8534339093        0.0674592425        0.3021577346
 C          8.9285737107       -0.9510540583        0.1062394131
 C          7.5540880941       -0.6405749817       -0.0053616387
 N          6.8434924049       -1.8036071923       -0.1639698388
 C          7.7103825898       -2.8652105097       -0.1585051736
 C          7.4474803931       -4.2207618214       -0.2837770803
 C          8.5214200488       -5.0891113740       -0.2508230369
 C          9.8261495997       -4.6235386212       -0.0975719205
 C         10.0933076777       -3.2747329991        0.0283418792
 C          9.0307576726       -2.3806809752       -0.0013684538
 C          4.9089388481        0.4002840715       -1.0686454218
 C          3.5384504624        0.5441209766       -1.1096511864
 C          2.4173468390       -1.5169448165        0.8753785568
 C          3.1495589297       -2.6877284818        0.8096505175
 H          3.4943978788       -4.5085885094       -0.2655042043
 H          1.7640739387       -4.0338390726       -1.9583311988
 H          0.4699676024       -1.9454684598       -1.8497363704
 H         -2.5857577856       -0.7886437987       -1.7165647246
 H         -3.8854908498       -2.8733305575       -1.6397807008
 H         -3.4749645282       -4.5221145886        0.1539137504
 H         -1.7456821483       -4.0753689655        1.8555908938
 H         -0.4577185356       -1.9815182776        1.7875212577
 H         -3.1146500932        2.4298094254       -1.6454496506
 H         -5.5646446526        2.1787314729       -1.7030870893
 H         -7.7017691540        2.6882290134       -0.3207084580
 H        -10.0905594107        2.1838983865       -0.4918711155
 H        -10.9105402243       -0.1426323015       -0.3418068071
 H         -5.8473063427       -1.8820100331        0.1945987888
 H         -6.4548846902       -4.5977538727        0.3501775994
 H         -8.3747930408       -6.1575292408        0.2890450983
 H        -10.6634925220       -5.3269164878        0.0498874162
 H        -11.1205496638       -2.9065789872       -0.1408074832
 H         -5.4016342653       -0.1842714132        1.8485562258
 H         -2.9587470355        0.0624455714        1.9029723620
 H         -2.4982662401        3.3326218025        1.8836736817
 H         -3.6372476455        5.5452500061        1.8660313516
 H         -3.1194735429        7.1393431967        0.0151266489
 H         -1.4877963467        6.4231442643       -1.7358381287
 H          2.5082792721        3.3655287109       -1.8409444590
 H          3.6484566216        5.5765296614       -1.7794623118
 H          3.1186803039        7.1409553452        0.0932470744
 H          1.4731710483        6.3983024987        1.8201480301
 H          3.1060584750        2.4052181755        1.6738127678
 H          5.5563225219        2.1565197805        1.7409497293
 H          7.7094587906        2.6888169288        0.3747930833
 H         10.0949357844        2.1719590628        0.5571010809
 H         10.9064723872       -0.1555954143        0.3820344901
 H          5.8402620861       -1.8651470326       -0.2195670806
 H          6.4363720778       -4.5812822641       -0.4035269518
 H          8.3482870289       -6.1510960185       -0.3457791931
 H         10.6388078271       -5.3345095158       -0.0774594078
 H         11.1057334619       -2.9189974592        0.1471317534
 H          5.4174551541       -0.1377694994       -1.8563860574
 H          2.9742227320        0.1071469791       -1.9208441359
 H          2.5935534055       -0.8152807258        1.6777714009
 H          3.8993859468       -2.8941962197        1.5606459175
