  94
 
 C          9.6015571157        2.9951504849       -0.0173324821
 C          8.6523011772        3.2008729429       -1.0041054044
 C          7.4779594262        2.4710958340       -1.0003354676
 C          7.2425979460        1.5163624440       -0.0149878797
 C          5.9855324742        0.7483039237       -0.0134053998
 C          4.7909150108        1.4161329661       -0.1094575684
 C          3.5657760005        0.7245310879       -0.0583876450
 N          2.4106507434        1.4000665802       -0.1455211186
 C          1.2888979725        0.7066419785       -0.0871010450
 C          0.0297822721        1.4032629987       -0.1560532595
 C         -0.0401733548        2.8031567166       -0.2378668895
 C         -1.2624789261        3.4204790450       -0.2660962407
 C         -2.4228466575        2.6194502253       -0.1994658096
 N         -3.6763273526        3.2178155962       -0.1533140114
 C         -4.6702707949        2.8299849339        0.7678903273
 C         -4.6773877699        1.5980655237        1.4075963430
 C         -5.6462582929        1.2971342398        2.3515941876
 C         -6.6323602321        2.2126820965        2.6618788481
 C         -6.6467475535        3.4417511381        2.0230867627
 C         -5.6725189464        3.7541502353        1.0908396358
 O         -5.7412968023        5.0051664022        0.5243548484
 C         -4.9734668238        5.2160035061       -0.5882948690
 C         -5.2482087908        6.3351549797       -1.3562892890
 C         -4.5217215625        6.5833291809       -2.5092628537
 C         -3.5468879651        5.6891236072       -2.9102686257
 C         -3.2710495322        4.5679530258       -2.1457865101
 C         -3.9500935456        4.3354509322       -0.9550458147
 N         -2.3648675287        1.3026691264       -0.1431330374
 C         -1.1820380145        0.6938104169       -0.1188572360
 C         -1.1704762496       -0.7568108089       -0.0422763223
 N         -2.3378265756       -1.3876886031       -0.0983637023
 C         -2.3817709262       -2.7079324491       -0.0175887906
 N         -3.6161032056       -3.3028776486       -0.1165467532
 C         -4.8325231828       -2.6059414188        0.0812053385
 C         -5.0715256451       -1.3214434003       -0.3858313843
 C         -6.2837163995       -0.7034437774       -0.1248134363
 C         -7.2655495362       -1.3541973854        0.5989933376
 C         -7.0539106099       -2.6502050979        1.0367005468
 C         -5.8489998907       -3.2779764493        0.7684761879
 O         -5.7011988942       -4.5848628031        1.1786750746
 C         -4.8145448825       -5.3181655047        0.4378305838
 C         -4.9825879674       -6.6923117756        0.3673969764
 C         -4.1360972096       -7.4498720438       -0.4230843402
 C         -3.1545651812       -6.8306548679       -1.1773733704
 C         -2.9800584996       -5.4595329522       -1.1051651818
 C         -3.7743108872       -4.6953903255       -0.2588748997
 C         -1.2135969740       -3.4718480471        0.2210898785
 C         -0.0059406854       -2.8299438637        0.2526712699
 C          0.0524117043       -1.4369788565        0.0805746339
 C          1.2988817827       -0.7195114402        0.0541627640
 N          2.4323868791       -1.3915242260        0.1479094064
 C          3.5762379989       -0.6938444976        0.0984910934
 C          4.8126560223       -1.3619269991        0.1842657273
 C          5.9966843413       -0.6716060110        0.1212792625
 C          7.2674997611       -1.4158672642        0.1566188184
 C          8.2461612097       -1.2029283408       -0.8107705537
 C          9.4289074038       -1.9169486256       -0.7777476830
 C          9.6532163026       -2.8496282660        0.2213261911
 C          8.6819219840       -3.0743698623        1.1821713381
 C          7.4944243313       -2.3670186852        1.1473651518
 C          8.1988245361        1.3225612916        0.9784706947
 C          9.3682648128        2.0589309190        0.9763586289
 H         10.5191302925        3.5647164032       -0.0209409300
 H          8.8278833274        3.9319076029       -1.7799799173
 H          6.7418855498        2.6237636318       -1.7768145534
 H          4.7632758600        2.4917173835       -0.1991602115
 H          0.8805759770        3.3655524990       -0.2548704491
 H         -1.3462255020        4.4957548545       -0.3004542681
 H         -3.9191744368        0.8751387439        1.1586705089
 H         -5.6240536143        0.3330637478        2.8354376359
 H         -7.3901327933        1.9805473972        3.3938578846
 H         -7.3982210316        4.1835239115        2.2426097892
 H         -6.0318082732        7.0002569872       -1.0303869806
 H         -4.7321267778        7.4634754379       -3.0962170407
 H         -2.9960793481        5.8561354485       -3.8229952263
 H         -2.5197769852        3.8649584106       -2.4715974372
 H         -4.2967072675       -0.8006269604       -0.9194782862
 H         -6.4537785483        0.2982753160       -0.4863762717
 H         -8.2012751752       -0.8625200195        0.8152429597
 H         -7.8067098499       -3.1926766187        1.5864144194
 H         -5.7778286454       -7.1454429910        0.9372946140
 H         -4.2606614317       -8.5205538906       -0.4663810502
 H         -2.5191478569       -7.4135766433       -1.8260054569
 H         -2.2232153891       -4.9743227321       -1.7023280961
 H         -1.2769518351       -4.5324528048        0.4034700832
 H          0.9145484859       -3.3677066743        0.4196285632
 H          4.8029646373       -2.4378474927        0.2735499878
 H          8.0713521873       -0.4843253959       -1.5979509012
 H         10.1795978383       -1.7444503333       -1.5350055270
 H         10.5810569412       -3.4016207250        0.2492629126
 H          8.8505148671       -3.8027597687        1.9620668049
 H          6.7408791711       -2.5344020804        1.9037821151
 H          8.0166084740        0.6012157423        1.7614562363
 H         10.1014557925        1.9012865305        1.7537251068
