66
 xtb: 6.7.1 (edcfbbe)
C           -2.91096780610880       -4.16150495528491       -0.00354089125676
C           -2.62276659011729       -3.52750699153096        1.19267647760143
C           -2.01062422976644       -2.28792218083453        1.19071067408655
C           -1.67826047490107       -1.67156861945938       -0.00832752106789
C           -1.03356815588380       -0.33600754349874       -0.00868212108490
C           -1.83930652777069        0.79560650502387       -0.00082615962563
C           -3.30909231281299        0.61619243103052        0.00621953118452
C           -4.00311393146088        0.46128429401868       -1.18844266158482
C           -5.37056939598564        0.25535365839717       -1.17904925125871
C           -6.05681148462481        0.20017921111875        0.02307601093752
C           -5.37133284473461        0.35714312187153        1.21663922880616
C           -4.00406891629582        0.56473842243201        1.20930072431120
C           -1.25388899911259        2.06674236725337        0.00064011938328
C           -2.05493129914157        3.24712900057691        0.00137329690954
C           -1.49502189214973        4.47717598118508        0.00066633454688
C           -0.07951424587576        4.63643533142178       -0.00027846382328
C            0.52123942577760        5.89621173836651       -0.00095169656192
C            1.89780619673652        6.02481468601661       -0.00187814499524
C            2.70498868782580        4.90300707514596       -0.00184770295690
C            2.14452400090977        3.62473896392088       -0.00143856654029
C            2.94255603927222        2.44973241666027        0.00071377282827
C            2.40678041827448        1.20038197167735       -0.00031057634914
C            3.36679309660482        0.07103467545643        0.00798248309023
C            3.86898750989634       -0.43321908098608       -1.18496125315596
C            4.82391091671565       -1.43301714547488       -1.17434131181708
C            5.29708997747200       -1.92932475535502        0.02791176032703
C            4.81805688767047       -1.41501623112605        1.22026332754764
C            3.86301334356271       -0.41537381206379        1.21094719908244
C            0.98056370151968        1.01962544511764       -0.00446565693054
C            0.35854257763806       -0.23869370578994       -0.01012721033092
C            1.07295138615765       -1.53718437209361       -0.01628036705672
C            1.35150338029547       -2.18868661519063        1.17818467836485
C            1.92015771026226       -3.44820671562125        1.17149786968581
C            2.20417575485591       -4.07600169469410       -0.02845697320037
C            1.91614262304991       -3.43859947138277       -1.22240786795947
C            1.34832687981582       -2.17872403882418       -1.21695349584923
C            0.15924454925331        2.18318394203980       -0.00175057529529
C            0.73725335357734        3.47794732116583       -0.00107369817443
C           -1.97193062190599       -2.31158680276123       -1.20501309226742
C           -2.58502158890826       -3.55070053895631       -1.20214123127694
H           -3.38997894939085       -5.12962283251071       -0.00070651866786
H           -2.85392826062714       -4.01437276277032        2.13308000177927
H           -1.76338200500871       -1.80587155908493        2.12967768157452
H           -3.46575132425738        0.56974508805414       -2.13014862144403
H           -5.90287420059991        0.19887594775647       -2.12783572509673
H           -7.12438153782242        0.03615830608644        0.00928855328354
H           -5.90317178670804        0.25421228029918        2.14162608237449
H           -3.46604894989189        0.62582828973217        2.13462654273662
H           -3.12885184105914        3.12745994390407        0.00050487451311
H           -2.11033897843979        5.36571863696375        0.00011542372592
H           -0.10602656049261        6.77625536254358       -0.00042689918412
H            2.34502693427184        7.00844303420735       -0.00111342451975
H            3.78073471052717        5.00526614536120       -0.00103904357663
H            4.01832859871305        2.56401757340601        0.00090554369611
H            3.50071184931942       -0.02721850738660       -2.12887540916696
H            5.20028944207999       -1.81179504619666       -2.12606048906580
H            6.04282499755073       -2.71057157304140        0.01096795914379
H            5.19628495303110       -1.80249210182356        2.14250815032309
H            3.49649472228429       -0.01807089390596        2.13426473685723
H            1.12120444327675       -1.69439648300145        2.12674590347765
H            2.13457590593584       -3.93829931907665        2.12575277489382
H            2.64534092123233       -5.06179660568470       -0.00990810846650
H            2.13326784207140       -3.93285383352864       -2.14238542364434
H            1.12073167006195       -1.68859186603001       -2.13700496818329
H           -1.74188629235994       -1.81887872529179       -2.13465989952473
H           -2.83300670178294       -4.02694912059641       -2.13564343388653
