  49
 
 O          4.2866421292        0.2195782182       -0.1090472939
 B          3.0736964034       -0.4042532761       -0.2141449513
 O          2.7309526578       -1.2781852308        0.7705352729
 C          2.0759983705       -0.1920885159       -1.3871700377
 C          2.3414194569        0.5435654496       -2.5357059822
 C          1.5291776409        0.4516720078       -3.6558206261
 C          0.4413077342       -0.4682713708       -3.6821459353
 C          0.0997966343       -1.1439472445       -2.5576223338
 C          0.7327658590       -0.7429243986       -1.3349315729
 Si        -0.4118214649       -0.0949308134        0.0418284696
 C          0.6385944402        0.8296317677        1.3075738174
 C          1.4242200847        1.9069146059        0.9092858349
 C          2.2465422371        2.5610492464        1.8085857009
 C          2.2976102641        2.1442748211        3.1280574058
 C          1.5182676523        1.0765258150        3.5407057982
 C          0.6977030934        0.4267790943        2.6360297048
 C         -1.7829621684        1.0405831920       -0.6011452584
 C         -1.8844449783        2.3740844980       -0.2066513270
 C         -2.8650956181        3.2005774678       -0.7224011048
 C         -3.7699211250        2.7119491575       -1.6506633322
 C         -3.6849758125        1.3899078637       -2.0561918538
 C         -2.7024218863        0.5684140963       -1.5378936723
 C         -1.1539856767       -1.6879858102        0.7642995257
 C         -2.5177121934       -1.8031862958        1.0092470527
 C         -3.0429080967       -2.9585007103        1.5609674505
 C         -2.2086319905       -4.0179486143        1.8761982893
 C         -0.8474459846       -3.9144658084        1.6406269039
 C         -0.3248205320       -2.7591123933        1.0877342885
 H          4.5009023623        0.8307309682       -0.8107852342
 H          3.3880035996       -1.3340574877        1.4648009437
 H          3.2669856523        1.1043458225       -2.6094018287
 H          1.8141316411        0.9516149880       -4.5687784811
 H         -0.0534692376       -0.6690454497       -4.6212215618
 H         -0.6854890293       -1.8842066258       -2.5479518288
 H          1.3882849117        2.2345266304       -0.1202976460
 H          2.8513489460        3.3952556960        1.4818834837
 H          2.9432806734        2.6496108552        3.8319541103
 H          1.5542071799        0.7481406451        4.5699979275
 H          0.0969557314       -0.4102807694        2.9615612765
 H         -1.1882245440        2.7628887116        0.5227229049
 H         -2.9274977644        4.2299594493       -0.3986448464
 H         -4.5372116338        3.3564941367       -2.0543646070
 H         -4.3885213618        1.0005943951       -2.7785853699
 H         -2.6462640463       -0.4613072120       -1.8589744296
 H         -3.1723817437       -0.9783184307        0.7675335537
 H         -4.1051979839       -3.0324969343        1.7461524010
 H         -2.6187115240       -4.9212377767        2.3048150361
 H         -0.1930550370       -4.7383719391        1.8877011863
 H          0.7360737680       -2.6737644190        0.9055327533
