  116
 
 C        -13.2117540459       -2.3680255298       -0.2636630526
 C        -13.1427513006       -1.1430375685        0.3808228557
 C        -11.9429896134       -0.4613787917        0.4497290034
 C        -10.7896595782       -0.9980760481       -0.1221316773
 C         -9.5417451849       -0.2537744519       -0.0322052321
 N         -9.5468434383        1.1061429904        0.0578896181
 C         -8.2951821414        1.4937447650        0.0906024464
 C         -7.8868129706        2.8828095216        0.2331684510
 C         -8.6649701801        3.8721124986       -0.3683632069
 C         -8.3192462934        5.2041106790       -0.2461532470
 C         -7.1974644261        5.5681817681        0.4821453838
 C         -6.4347708033        4.5931104774        1.1039095215
 C         -6.7755766244        3.2580714063        0.9866678300
 N         -7.4448444370        0.4202435399        0.0188128177
 C         -6.0388311008        0.4439721914       -0.0094355352
 C         -5.3728630402        1.2308697382       -0.9464753688
 C         -3.9950015436        1.2546058119       -0.9730115604
 C         -3.2418139372        0.4839496690       -0.0791193553
 C         -1.7826693102        0.5018466769       -0.1039523751
 C         -1.0787786398        1.7342850767        0.0593523665
 C         -1.7551347134        2.9358166893        0.3009198479
 C         -1.0736482987        4.1257580838        0.5330406539
 C          0.3046587083        4.1257592323        0.5819256369
 C          1.0034405194        2.9382250420        0.3853611088
 C          0.3483997436        1.7389326494        0.0872703576
 C          1.0706887502        0.5135473735       -0.0771313622
 C          2.5212635384        0.5101210552       -0.0455232320
 C          3.2188950493       -0.3422226409        0.8243337006
 C          4.5933203436       -0.3670861809        0.8552541291
 C          5.3395984838        0.4444991524       -0.0061438302
 C          6.7852227391        0.4477205370       -0.0426789088
 N          7.4915367740        1.5238487514       -0.3111150576
 C          8.7920611044        1.1454415410       -0.2432123896
 C          9.9472954763        1.9603695853       -0.4087983662
 C          9.8373410751        3.3319898399       -0.6633276457
 C         10.9631522053        4.1081955125       -0.7866996422
 C         12.2184137874        3.5176267612       -0.6535341418
 C         12.3386094228        2.1689632530       -0.4088747795
 C         11.2123130519        1.3406020293       -0.2848229367
 C         11.3070583520       -0.0919081169       -0.0572930772
 C         12.5456808888       -0.7473943163       -0.0074028725
 C         12.6461753979       -2.1080233175        0.1665950149
 C         11.4965069832       -2.8836377081        0.2815997474
 C         10.2636773595       -2.2800970369        0.2452861438
 C         10.1391123532       -0.8903312890        0.0975298821
 C          8.8867034674       -0.2158276549        0.0551155981
 N          7.5882799890       -0.6492558553        0.1948960585
 C          7.1198326585       -1.9483981219        0.4898644245
 C          6.3773992875       -2.6427256721       -0.4581070896
 C          5.8901571159       -3.9024820022       -0.1570411373
 C          6.1415123677       -4.4697702805        1.0814474276
 C          6.8817351157       -3.7756456919        2.0256888550
 C          7.3699985428       -2.5141984637        1.7369068133
 C          4.6514639833        1.3198497159       -0.8567325629
 C          3.2780386704        1.3553108881       -0.8736215664
 C          0.3621687634       -0.7161840387       -0.2702320504
 C          1.0319725497       -1.9098311219       -0.5588307374
 C          0.3451022382       -3.0989080155       -0.7850729699
 C         -1.0341260541       -3.1066983399       -0.7747828793
 C         -1.7281306272       -1.9235598350       -0.5459970826
 C         -1.0643672218       -0.7214149762       -0.2741744081
 C         -3.9283215696       -0.3099429209        0.8474169100
 C         -5.3057035640       -0.3268095686        0.8893686001
 C         -8.2330557705       -0.7079814904       -0.0503542442
 C         -7.6858014969       -2.0576687778       -0.1187270119
 C         -6.6965376766       -2.3874283196       -1.0436307909
 C         -6.1885929622       -3.6727221396       -1.0935539547
 C         -6.6564481813       -4.6426982586       -0.2227081284
 C         -7.6424776741       -4.3236844182        0.6977687392
 C         -8.1549192432       -3.0414973738        0.7516038461
 C        -10.8722825825       -2.2208666340       -0.7864135047
 C        -12.0748663053       -2.8996066380       -0.8509627088
 H        -14.1488523370       -2.9033029637       -0.3143710684
 H        -14.0284850943       -0.7190655597        0.8322051913
 H        -11.8756219095        0.4955380186        0.9452333213
 H         -9.5376980447        3.5733061069       -0.9289408840
 H         -8.9255619265        5.9614804488       -0.7211633020
 H         -6.9245300093        6.6091573595        0.5736409446
 H         -5.5722783978        4.8734545227        1.6910458298
 H         -6.1880778313        2.5092021577        1.4974226875
 H         -5.9446638135        1.8161491638       -1.6520620890
 H         -3.4861418759        1.8468710097       -1.7188812544
 H         -2.8332592799        2.9408490132        0.3249250828
 H         -1.6304889936        5.0366380269        0.6960341975
 H          0.8484343615        5.0356158996        0.7886852790
 H          2.0774355873        2.9459507470        0.4867961017
 H          2.6598375070       -0.9559296007        1.5157024706
 H          5.0915026576       -0.9989340007        1.5741665492
 H          8.8464565110        3.7514072653       -0.7498007990
 H         10.8810624212        5.1674947278       -0.9810944395
 H         13.1078171981        4.1248695782       -0.7422697291
 H         13.3305403940        1.7576744368       -0.3101772957
 H         13.4562219394       -0.1808589391       -0.1160875551
 H         13.6190136362       -2.5762804904        0.1999861342
 H         11.5711312546       -3.9551011124        0.3950383635
 H          9.3752056834       -2.8861924705        0.3179045346
 H          6.1864281082       -2.1897844505       -1.4200052510
 H          5.3144627775       -4.4412615725       -0.8943595695
 H          5.7601421931       -5.4527033212        1.3126048189
 H          7.0773880147       -4.2141525328        2.9926230241
 H          7.9457379789       -1.9618399950        2.4657992517
 H          5.2277146523        1.9547230735       -1.5123905203
 H          2.7666190004        2.0046834758       -1.5691302435
 H          2.1088446394       -1.9116749982       -0.6260163573
 H          0.8987182531       -4.0044468976       -0.9846472058
 H         -1.5814601446       -4.0185340709       -0.9629631323
 H         -2.8054386406       -1.9326694993       -0.5964800426
 H         -3.3662780066       -0.8921736958        1.5624021998
 H         -5.8220091421       -0.9281732412        1.6230316700
 H         -6.3364697658       -1.6380960784       -1.7344978512
 H         -5.4259825225       -3.9176280723       -1.8186553387
 H         -6.2568013081       -5.6452359932       -0.2627889967
 H         -8.0126689606       -5.0766370307        1.3782119886
 H         -8.9231951197       -2.7885862072        1.4682386195
 H         -9.9948622561       -2.6342476141       -1.2616133169
 H        -12.1258673456       -3.8477819367       -1.3672457646
