  32
 
 C          5.0232120311       -0.6929388424       -0.0007145178
 C          5.0230677059        0.6938814049        0.0004827305
 C          3.8291178413        1.3923101959        0.0012995417
 C          2.6082413473        0.7246893272        0.0009747612
 N          1.4353451981        1.3556606591        0.0014184848
 C          0.2764942358        0.7150324507        0.0010928294
 C         -0.9649432027        1.4126682535        0.0010590924
 C         -1.0058179625        2.8179265214        0.0011806660
 C         -2.2211150172        3.4534353660        0.0007977155
 C         -3.3833334693        2.6691672215        0.0002886630
 N         -3.3707612486        1.3622760576        0.0003135494
 C         -2.2018596931        0.7200810235        0.0007282732
 C         -2.2017141530       -0.7206337086        0.0008540497
 N         -3.3704871249       -1.3630607565        0.0010501209
 C         -3.3827997755       -2.6699534720        0.0012817213
 C         -2.2204245014       -3.4539880974        0.0013245608
 C         -1.0052538000       -2.8182385549        0.0010492181
 C         -0.9646552138       -1.4129710231        0.0008076740
 C          0.2766381870       -0.7150839219        0.0006156559
 N          1.4356246693       -1.3554820982        0.0000345312
 C          2.6083892542       -0.7242567938       -0.0000017154
 C          3.8294080315       -1.3916197768       -0.0009143433
 H          5.9567894015       -1.2341346862       -0.0014763684
 H          5.9565317037        1.2352733143        0.0007450019
 H          3.8156529904        2.4710950116        0.0021551883
 H         -0.0713251013        3.3604350193        0.0015259638
 H         -2.2901554245        4.5300115583        0.0008512998
 H         -4.3622149830        3.1303909172       -0.0001438881
 H         -4.3615898101       -3.1313715195        0.0014646499
 H         -2.2892515215       -4.5305778207        0.0015877888
 H         -0.0706522784       -3.3605596589        0.0010663957
 H          3.8161737409       -2.4704076047       -0.0017729001
