  80
 
 C          8.4468030131        2.6958440362       -1.5928532678
 C          8.7534546855        1.9528032614       -0.4636790783
 C          7.8430994190        1.0467052733        0.0452815698
 C          6.6063146600        0.8713870677       -0.5773284307
 N          5.6822010425       -0.0497147545       -0.0693169377
 C          6.1363138776       -1.2696392182        0.4408538846
 C          5.5316059957       -1.8324789300        1.5670479235
 C          5.9803884179       -3.0407458207        2.0638672061
 C          7.0378484351       -3.7001335832        1.4567884167
 C          7.6450419232       -3.1424442236        0.3417447520
 C          7.2003642431       -1.9382132006       -0.1677246494
 C          4.3257014318        0.2546284420       -0.0525538046
 C          3.8879837387        1.5636051765        0.1356552658
 C          2.5276391606        1.8312947718        0.1555586808
 C          1.5687262761        0.8326194879       -0.0187222029
 C          2.0012524227       -0.5347858247       -0.2304892703
 C          3.3835649782       -0.7716394775       -0.2381279815
 C          1.1203297517       -1.6298035080       -0.4337602802
 C         -0.2686238743       -1.4007457046       -0.3978577671
 C         -1.5307674859       -2.0591937028       -0.5522560762
 C         -1.8805175329       -3.3749840465       -0.8421524517
 C         -3.2162265621       -3.7125739220       -0.9212689147
 C         -4.2134073129       -2.7777186216       -0.6584326344
 C         -3.9092246395       -1.4532508406       -0.3409675410
 N         -4.9502875875       -0.5809476223        0.0437905894
 C         -6.1119672851       -0.5852878717       -0.7389580732
 C         -5.9907223737       -0.5607138292       -2.1291088841
 C         -7.1183869447       -0.5730882198       -2.9265468946
 C         -8.3803643519       -0.6095435664       -2.3547262487
 C         -8.5057455656       -0.6464697563       -0.9750213329
 C         -7.3838241734       -0.6392313055       -0.1684749407
 C         -4.9029610726        0.0340308392        1.2929798040
 C         -5.6907944781        1.1571734700        1.5663441357
 C         -5.6161922729        1.7835097753        2.7936494222
 C         -4.7525792148        1.3168360706        3.7717239240
 C         -3.9702122979        0.2043683303        3.5099913634
 C         -4.0454978882       -0.4375555196        2.2894332379
 C         -2.5709725656       -1.0666451611       -0.3645095004
 N         -1.9518095447        0.1541658174       -0.1715565980
 C         -2.1094710253        1.5413703762       -0.0872179491
 C         -3.2338354891        2.3205533301       -0.2067848870
 C         -3.0983297378        3.7044080645       -0.1000401250
 C         -1.8548395885        4.2844982078        0.1019481935
 C         -0.7057004577        3.5147113563        0.1667433667
 C         -0.8019242437        2.1287355990        0.0555359596
 C          0.1658969719        1.0719591211       -0.0080818490
 C         -0.6130298054       -0.0782518745       -0.1676528393
 C          6.3029172504        1.6195232784       -1.7158289370
 C          7.2193191600        2.5246033598       -2.2146545843
 H          9.1598194138        3.4041952122       -1.9865683371
 H          9.7050471709        2.0850490649        0.0295324378
 H          8.0769351590        0.4771651498        0.9327360883
 H          4.7183554937       -1.3099496550        2.0488106326
 H          5.5068111511       -3.4652262909        2.9368149214
 H          7.3874303100       -4.6425029348        1.8503919138
 H          8.4652614346       -3.6536402762       -0.1401581229
 H          7.6635173847       -1.5120832786       -1.0455475130
 H          4.6013986671        2.3584669392        0.2900033215
 H          2.1960420665        2.8426173298        0.3315462693
 H          3.7359472158       -1.7748020870       -0.4299252872
 H          1.5349939150       -2.6117649983       -0.6000668839
 H         -1.1102400498       -4.1150185844       -0.9990024651
 H         -3.5024979449       -4.7285853139       -1.1507495397
 H         -5.2493355662       -3.0824885595       -0.6628417963
 H         -5.0058841849       -0.5308571358       -2.5728446803
 H         -7.0105831769       -0.5486404457       -4.0009835454
 H         -9.2602430874       -0.6159113413       -2.9801592603
 H         -9.4850811115       -0.6924105420       -0.5214778390
 H         -7.4849984535       -0.6918384127        0.9057085319
 H         -6.3540938953        1.5450079200        0.8068923615
 H         -6.2305213335        2.6516014568        2.9832152413
 H         -4.6914192255        1.8141486322        4.7277895009
 H         -3.2984726321       -0.1757452910        4.2660010533
 H         -3.4441061915       -1.3159779778        2.1074921903
 H         -4.1998776257        1.8857298303       -0.3977062445
 H         -3.9764171200        4.3269215629       -0.1824441052
 H         -1.7787861124        5.3590745454        0.1878769779
 H          0.2563368209        3.9884408806        0.2886011741
 H          5.3507095823        1.4769940708       -2.2050853365
 H          6.9763826405        3.0947131646       -3.0991691745
