  113
 
 C          5.5231064927        3.6482224225        4.4431552433
 C          5.7880893936        3.8305957314        2.9410860732
 C          4.8731616738        4.9300794449        2.3812203229
 C          7.2399740126        4.2871723410        2.7671229922
 C          5.4962203932        2.5209160053        2.2214036256
 C          6.4539927507        1.8420267724        1.4849295085
 C          6.1243239351        0.6467971015        0.8593015156
 C          4.8265180142        0.1096981778        0.9746811139
 C          3.8508013931        0.7949333348        1.6814175509
 C          4.2054202520        1.9807785933        2.2939485787
 N          4.7443169375       -1.0646090415        0.2418223714
 C          5.9826200860       -1.2929643261       -0.3404259372
 C          6.8692018067       -0.2572096492        0.0236628680
 C          8.1848085425       -0.2759408051       -0.4110861280
 C          8.6429888102       -1.3223888757       -1.2016700019
 C          7.7514036363       -2.3480599580       -1.5270495815
 C          6.4328950387       -2.3546005229       -1.1060409307
 C         10.0940652398       -1.3204112043       -1.6646697288
 C         11.0117749393       -1.3281860573       -0.4326109035
 C         10.3533674976       -0.0558168754       -2.4973194210
 C         10.4476142555       -2.5367508613       -2.5260000686
 C          3.6328773366       -1.8978055937        0.1509997977
 C          2.9238957388       -2.2499586755        1.3029466045
 C          1.8340516577       -3.0931656288        1.2143706329
 C          1.4542848331       -3.5909278184       -0.0191972394
 C          2.1392058855       -3.2465036409       -1.1698992536
 C          3.2271765860       -2.3989329898       -1.0886229465
 S          0.0413342260       -4.6887334211       -0.1223031374
 O          0.1217806212       -5.4272664532       -1.3657206978
 O         -0.0266078617       -5.4632180338        1.1001334742
 C         -1.3893826964       -3.6115770983       -0.1890119199
 C         -1.8507398580       -3.1683922952       -1.4152755446
 C         -2.9571009046       -2.3434564328       -1.4701847892
 C         -3.5979861051       -1.9512854188       -0.2915903031
 C         -3.1076530470       -2.3947313411        0.9397977390
 C         -2.0071391242       -3.2278681633        0.9873698911
 N         -4.7256853748       -1.1372818781       -0.3425329010
 C         -4.8784944371        0.0050219016       -1.1140889699
 C         -6.1664157990        0.5405379464       -0.9116392011
 C         -6.5585034359        1.7059877294       -1.5570050656
 C         -5.6731112796        2.3571068433       -2.4012099139
 C         -4.3885446981        1.8208945446       -2.5601686900
 C         -3.9726044277        0.6646199741       -1.9297917920
 C         -6.0377731017        3.6311728426       -3.1509495603
 C         -5.0851966619        4.7591822537       -2.7271703871
 C         -5.9070653280        3.3794358167       -4.6606629564
 C         -7.4718587965        4.0899771302       -2.8687910505
 C         -6.8312190155       -0.3303372566        0.0211455575
 C         -5.9095695869       -1.3468848909        0.3500521056
 C         -6.2872773470       -2.3801287723        1.1902517398
 C         -7.5638329584       -2.3590967230        1.7245998166
 C         -8.4843593364       -1.3465191004        1.4415263722
 C         -8.1040189135       -0.3342176465        0.5693155957
 C         -9.8856474710       -1.3239032458        2.0380656468
 C        -10.1436651216       -2.4889197033        2.9986350337
 C        -10.0781503673       -0.0146897021        2.8183332435
 C        -10.9147753900       -1.4067930436        0.9006326857
 H          5.7485164137        4.5687926561        4.9778041026
 H          4.4854474551        3.3894146177        4.6350810989
 H          6.1520375832        2.8545757362        4.8422191985
 H          5.0397251948        5.0496464607        1.3122982513
 H          5.0841644111        5.8781917188        2.8718093299
 H          3.8245016172        4.6929030009        2.5376648389
 H          7.4722237847        4.4635362505        1.7191856746
 H          7.9327318362        3.5508993644        3.1686150468
 H          7.3929651162        5.2204331401        3.3057977645
 H          7.4563266056        2.2210713376        1.3769875695
 H          2.8377635459        0.4276608003        1.7465452735
 H          3.4423046364        2.5069418601        2.8467667135
 H          8.8421978293        0.5277606139       -0.1180049504
 H          8.0844059699       -3.1808138103       -2.1240615686
 H          5.7867666251       -3.1807462860       -1.3619497583
 H         10.8562261937       -0.4472160715        0.1839250234
 H         10.8159654801       -2.2087808371        0.1764402147
 H         12.0548080566       -1.3474611017       -0.7421766520
 H          9.6936937840       -0.0333736011       -3.3627488018
 H         11.3833936347       -0.0425830814       -2.8480523918
 H         10.1810386049        0.8449867062       -1.9147933345
 H         10.3152337811       -3.4627206829       -1.9707404543
 H          9.8400157872       -2.5700748494       -3.4275827598
 H         11.4914888018       -2.4741328795       -2.8277173209
 H          3.2511210502       -1.8818883817        2.2628524815
 H          1.2907374606       -3.4006978322        2.0935935613
 H          1.8154819891       -3.6588487550       -2.1125397719
 H          3.7601671992       -2.1101627715       -1.9810311948
 H         -1.3553905590       -3.5043993362       -2.3124303967
 H         -3.3487929363       -2.0216437945       -2.4225067752
 H         -3.5866578861       -2.0734698155        1.8514917602
 H         -1.6239310396       -3.5996586632        1.9243953721
 H         -7.5513671849        2.0841120493       -1.3803539804
 H         -3.6799533434        2.3264172904       -3.1983311212
 H         -2.9652865160        0.3012217598       -2.0654793991
 H         -5.1540584849        4.9266230336       -1.6539170962
 H         -4.0531409442        4.5206219568       -2.9687840586
 H         -5.3488464382        5.6829504102       -3.2382836232
 H         -4.8898713593        3.1110664267       -4.9325399303
 H         -6.1824109851        4.2744913969       -5.2149223598
 H         -6.5663918220        2.5686216483       -4.9649622350
 H         -8.1918128564        3.3335750763       -3.1732742444
 H         -7.6795882799        4.9971474097       -3.4331078721
 H         -7.6110989288        4.3127803452       -1.8132510739
 H         -5.6184402001       -3.1962051490        1.4186170789
 H         -7.8392642929       -3.1689944369        2.3795324063
 H         -8.7896350095        0.4546518855        0.3017003975
 H        -10.0648164682       -3.4454477789        2.4867744887
 H         -9.4458905357       -2.4708261956        3.8329079712
 H        -11.1512909271       -2.4079931501        3.4020619972
 H         -9.9748353862        0.8524111511        2.1719722777
 H        -11.0692396426        0.0118403684        3.2668804114
 H         -9.3379100961        0.0620831788        3.6125541878
 H        -10.7715120615       -2.3224319872        0.3298346966
 H        -11.9240967075       -1.4081412779        1.3073845773
 H        -10.8228170973       -0.5643418876        0.2206106785
