  60
 
 C          7.7776864598        0.5910779748       -1.3153671615
 O          7.0402496783        0.0407150119       -0.2520569936
 C          5.6799030219        0.1311318657       -0.2916342419
 C          4.9458255467        0.7233546450       -1.3096926830
 C          3.5639821097        0.7445452474       -1.2240007799
 C          2.8815258040        0.1802577904       -0.1550994497
 C          1.4180360266        0.1899504139       -0.0929386870
 C          0.7135898338        1.4330599401       -0.0630898892
 C          1.3835523279        2.6577254458       -0.0601946381
 C          0.6893020038        3.8678469142       -0.0838560218
 C         -0.6864487966        3.8676146709       -0.1139593868
 C         -1.3815882243        2.6583860247       -0.0759361400
 C         -0.7124948326        1.4349631271       -0.0108714059
 C         -1.4179002642        0.1956035953        0.0821834247
 C         -2.8814652740        0.1900001986        0.1443892653
 C         -3.5639348600        0.8067521484        1.1838316477
 C         -4.9458156849        0.7898828459        1.2702931367
 C         -5.6797807437        0.1478062458        0.2828472530
 O         -7.0401128906        0.0551577805        0.2478851618
 C         -7.7776050126        0.6561253742        1.2833933329
 C         -5.0172984257       -0.4643824376       -0.7835728422
 C         -3.6372209472       -0.4492871314       -0.8635201152
 O         -2.9229160837       -0.9854952193       -1.8892033118
 C         -3.6112201702       -1.6592981046       -2.9116789341
 C         -0.7087993778       -1.0445327913        0.1011348975
 C         -1.3652043911       -2.2621772070        0.2838276983
 C         -0.6779450361       -3.4736724950        0.2163733822
 C          0.6748146763       -3.4807979701       -0.0394220327
 C          1.3631143942       -2.2749548516       -0.1689388539
 C          0.7078790198       -1.0489684865       -0.0485412390
 C          3.6374100829       -0.4085733201        0.8830332082
 O          2.9233344085       -0.8933528531        1.9341523317
 C          3.6116240929       -1.5180188588        2.9873801773
 C          5.0174787865       -0.4276713096        0.8037368756
 H          7.6109052419        1.6694499243       -1.4048976797
 H          8.8239081647        0.4078945509       -1.0750620626
 H          7.5352435387        0.1062718913       -2.2666697179
 H          5.4268527886        1.1613902757       -2.1691337218
 H          2.9917008509        1.1879341329       -2.0255135114
 H          2.4624901022        2.6710309690       -0.0378683858
 H          1.2395733901        4.7973613990       -0.0877737223
 H         -1.2359955280        4.7965527584       -0.1573879799
 H         -2.4605279833        2.6712559191       -0.0987107487
 H         -2.9917141980        1.2894366293        1.9623550910
 H         -5.4269355582        1.2700626492        2.1068625654
 H         -8.8237541219        0.4604147199        1.0528391246
 H         -7.5342541257        0.2185984576        2.2571193382
 H         -7.6118529305        1.7377427212        1.3200590842
 H         -5.6280054802       -0.9379811698       -1.5344017090
 H         -4.2890981375       -0.9898668001       -3.4515919636
 H         -2.8420742992       -2.0197821299       -3.5930016583
 H         -4.1773423668       -2.5117354673       -2.5222857990
 H         -2.4257320611       -2.2686505461        0.4854884171
 H         -1.2159763302       -4.4006650635        0.3525925159
 H          1.2120348217       -4.4140274283       -0.1279351965
 H          2.4235760982       -2.2927345587       -0.3702895060
 H          4.1773295411       -2.3882232831        2.6388163678
 H          2.8424904033       -1.8454132525        3.6852205370
 H          4.2898868442       -0.8239668958        3.4947361816
 H          5.6282472326       -0.8634726764        1.5770696118
