  94
 
 C         -3.6132494732        5.1709611538        2.3553290380
 C         -3.3019347363        3.8810927692        1.6580587544
 C         -4.2932518110        3.1938646389        0.9665858570
 C         -4.0204372630        2.0134383231        0.3063558781
 C         -2.7362599370        1.4675692667        0.3300899066
 N         -2.4262260361        0.2584102569       -0.3225160295
 C         -3.4827063432       -0.6210645558       -0.5970386684
 C         -3.6489607642       -1.2198129918       -1.8431879070
 C         -4.6764075426       -2.1211279784       -2.0559522749
 C         -5.5682984033       -2.4494154179       -1.0465189503
 C         -6.6888748372       -3.4185558504       -1.2739400206
 C         -5.3993461067       -1.8485738639        0.1977544850
 C         -4.3756581887       -0.9552293451        0.4252559004
 C         -1.3469107271        0.3051402827       -1.2608761788
 C         -1.4521787278        1.2818777471       -2.2509800405
 C         -0.5132377865        1.4080581786       -3.2531838957
 C          0.5465126263        0.5227499773       -3.2802815706
 C          0.6676680140       -0.4382235801       -2.2936543891
 C         -0.2444667397       -0.5688651076       -1.2495379121
 C          0.0057351362       -1.5859520761       -0.1276149901
 C          0.2973851704       -0.7312266283        1.1108554457
 C         -0.5626910294       -0.7515207786        2.2070483803
 C         -0.3958693724        0.0612155772        3.3128259784
 C          0.6510857904        0.9617033871        3.3534130541
 C          1.5234142090        1.0043597917        2.2859933705
 C          1.3769352169        0.1702186267        1.1772865729
 N          2.3899493202        0.3032050978        0.1735828376
 C          2.5915809446        1.5887429974       -0.3541860376
 C          1.4951662705        2.3696168861       -0.7108549593
 C          1.6651422099        3.6305354662       -1.2446989794
 C          2.9312990010        4.1633746015       -1.4437340179
 C          3.1189906080        5.5202126147       -2.0525627861
 C          4.0244130156        3.3915078275       -1.0705856720
 C          3.8651537122        2.1325522395       -0.5272818929
 C          3.5002421829       -0.5525351352        0.2641375818
 C          3.8597739397       -1.1799181559        1.4537648955
 C          4.9444906354       -2.0389135960        1.4932064322
 C          5.7022326224       -2.2944584761        0.3613328807
 C          6.8773720051       -3.2237006175        0.3975619974
 C          5.3443092531       -1.6598270239       -0.8254722938
 C          4.2646225942       -0.8063289814       -0.8796221203
 C         -1.2287255703       -2.5178529334       -0.0401700483
 C         -0.9467379891       -3.9225609056        0.5135432544
 C          0.2139826129       -3.9192968125        1.4962247976
 C          1.4812939738       -3.4507437614        0.7795384674
 C          1.1773594870       -2.5414704589       -0.4157458798
 C         -1.7409659818        2.1590554165        1.0133034581
 C         -2.0221200405        3.3451762778        1.6624792143
 H         -4.5301811688        5.0833498643        2.9356179650
 H         -3.7559412844        5.9692716496        1.6262955269
 H         -2.8024189973        5.4572634804        3.0205674988
 H         -5.2957602613        3.5973268601        0.9345104906
 H         -4.8075156185        1.5127779526       -0.2388320141
 H         -2.9731570761       -0.9771790561       -2.6503383601
 H         -4.7860485554       -2.5710829256       -3.0327658656
 H         -6.6459324199       -4.2293773517       -0.5476518660
 H         -6.6381818813       -3.8436540444       -2.2731818534
 H         -7.6514856698       -2.9204835909       -1.1585447125
 H         -6.0791146647       -2.0936244647        1.0017068728
 H         -4.2520261245       -0.5045168866        1.3996763789
 H         -2.3050744229        1.9461705245       -2.2195391781
 H         -0.6171726651        2.1747039109       -4.0058488845
 H          1.2875288981        0.5810752444       -4.0634316742
 H          1.5121201015       -1.1029142505       -2.3494360726
 H         -1.4080819374       -1.4183781259        2.2124014868
 H         -1.0941483242       -0.0035949864        4.1338625246
 H          0.7913542298        1.6153132986        4.2010073397
 H          2.3552558879        1.6958244433        2.2923562072
 H          0.5010462109        1.9832796553       -0.5748387725
 H          0.7906601486        4.2065108662       -1.5122638638
 H          3.2947778780        5.4293715501       -3.1253750629
 H          2.2344126606        6.1356935407       -1.9065051718
 H          3.9775174937        6.0258891566       -1.6151733685
 H          5.0227414956        3.7879589094       -1.1938550393
 H          4.7385718979        1.5743479726       -0.2239000140
 H          3.2978782581       -0.9837156229        2.3554675975
 H          5.2056918257       -2.5119928606        2.4294070854
 H          7.0329917084       -3.6146157984        1.3998753990
 H          7.7827069571       -2.7065451523        0.0813018079
 H          6.7198428541       -4.0616396531       -0.2810317806
 H          5.9214185275       -1.8446021615       -1.7204855796
 H          3.9957013517       -0.3233217914       -1.8080419407
 H         -2.0220630557       -2.0599111770        0.5390312688
 H         -1.6152974910       -2.6306641691       -1.0556789579
 H         -1.8508315462       -4.3017302671        0.9944313509
 H         -0.7066266211       -4.6068682872       -0.3029575913
 H         -0.0128149089       -3.2537758705        2.3290864674
 H          0.3610111847       -4.9200623033        1.9072179074
 H          2.1248736162       -2.9216890773        1.4832392103
 H          2.0456887281       -4.3109889173        0.4125732879
 H          2.0910996870       -2.0110508734       -0.6586453111
 H          0.9040641910       -3.1506165745       -1.2800725300
 H         -0.7431361093        1.7591637915        1.0472500652
 H         -1.2265381329        3.8558381981        2.1861808029
