  118
 
 C          6.2876341227        5.0561254468       -2.7444863161
 C          5.6459946161        4.5247182375       -1.6381948511
 C          6.1231629683        3.3743430817       -1.0367455161
 C          7.2527411032        2.7352893887       -1.5448557289
 C          7.8094049600        1.5256980157       -0.9575408184
 N          9.0974820593        1.2804844964       -0.9162328567
 C          9.2309877362        0.0745491361       -0.3041472281
 C         10.4362044300       -0.6235152619       -0.0020939450
 C         11.6976893182       -0.1190091746       -0.2984771807
 C         12.8326145009       -0.8410163566        0.0306220437
 C         12.7212584351       -2.0689596229        0.6522996147
 C         11.4689806634       -2.6087138540        0.9612430249
 C         11.3406018851       -3.8795955929        1.5938831259
 C         10.1241409656       -4.4015936760        1.8679500119
 C          8.9252050132       -3.7018410315        1.5401801116
 C          7.6706995330       -4.2593421860        1.8039078047
 C          6.5175205749       -3.5843522521        1.4639688182
 C          6.5828173058       -2.3317370967        0.8771697512
 C          7.8108243370       -1.7254992772        0.6183074829
 C          9.0132962106       -2.4250676949        0.9309915184
 C         10.2964364020       -1.8822796000        0.6348873736
 C          7.9765437415       -0.4392388410        0.0268680084
 N          7.0723337842        0.5120716389       -0.3892929306
 C          5.6630314565        0.4745527163       -0.3075758673
 C          4.9080915385        0.3855304574       -1.4705631466
 C          3.5276825564        0.3763219677       -1.3944468873
 C          2.8863110750        0.4575407702       -0.1629427473
 C          1.4064137893        0.4542448772       -0.0816230253
 C          0.7134065007       -0.7621507664       -0.0451634915
 C          1.3898353624       -2.0101028305       -0.0868390317
 C          0.7039774914       -3.1849636598       -0.0524453567
 C         -0.7040771947       -3.1854091508        0.0271157870
 C         -1.3901373933       -2.0109706416        0.0711936812
 C         -0.7138973442       -0.7626163625        0.0395688445
 C         -1.4069900356        0.4533288066        0.0867165087
 C         -2.8870304374        0.4564033868        0.1664729728
 C         -3.6502049296        0.5411380756       -0.9948027050
 C         -5.0302237917        0.5525671930       -0.9295782281
 C         -5.6639723877        0.4744154526        0.3072309450
 N         -7.0734307083        0.5108175081        0.3866536765
 C         -7.8125636533        1.5247050075        0.9517137104
 C         -7.2579198757        2.7363838352        1.5366793633
 C         -7.9124438877        3.2922335832        2.6370124662
 C         -7.4320696344        4.4433172055        3.2303158885
 C         -6.2961588365        5.0611962117        2.7310765479
 C         -5.6549167415        4.5293502663        1.6247619168
 C         -6.1303342791        3.3768600070        1.0259903445
 N         -9.1002362738        1.2777084404        0.9094977741
 C         -9.2313872399        0.0700838143        0.3001680572
 C        -10.4353295949       -0.6305988437       -0.0008849312
 C        -11.6977887145       -0.1271396210        0.2931290976
 C        -12.8313635305       -0.8521140007       -0.0340915196
 C        -12.7176891334       -2.0819364845       -0.6516167215
 C        -11.4643880857       -2.6205062963       -0.9584477686
 C        -11.3336443018       -3.8931467580       -1.5870395534
 C        -10.1162077134       -4.4138048141       -1.8592879735
 C         -8.9185813568       -3.7110080813       -1.5332782736
 C         -7.6630928338       -4.2671772758       -1.7951045954
 C         -6.5111756379       -3.5893661068       -1.4565690900
 C         -6.5787820587       -2.3353736225       -0.8730074562
 C         -7.8078314842       -1.7303212161       -0.6163008714
 C         -9.0090209717       -2.4326435359       -0.9277634907
 C        -10.2931940762       -1.8910889967       -0.6339021525
 C         -7.9758876094       -0.4427534134       -0.0282929280
 C         -4.9106034268        0.3908508931        1.4716410288
 C         -3.5300660671        0.3813790128        1.3974719768
 C         -0.7136943250        1.6696923508        0.0520592605
 C         -1.3900189308        2.9172264953        0.1054530289
 C         -0.7041959961        4.0918734674        0.0658882396
 C          0.7028152915        4.0924349175       -0.0310448604
 C          1.3889716057        2.9183011698       -0.0795418731
 C          0.7130136297        1.6701977710       -0.0358537185
 C          3.6510781551        0.5476135102        0.9968939554
 C          5.0310177565        0.5582357789        0.9297585044
 C          7.9075331174        3.2907493644       -2.6452557706
 C          7.4256174771        4.4398876795       -3.2410460022
 H          5.9079258478        5.9524933586       -3.2120622767
 H          4.7708178938        5.0131448618       -1.2357596549
 H          5.6281401227        2.9879130963       -0.1588799103
 H         11.7666222772        0.8427350199       -0.7833952368
 H         13.8092436455       -0.4407580770       -0.2008885379
 H         13.6088061112       -2.6309049436        0.9069378325
 H         12.2439338291       -4.4181130026        1.8437778868
 H         10.0311288185       -5.3691094553        2.3411112892
 H          7.6159647473       -5.2328452367        2.2696409940
 H          5.5522162456       -4.0303298131        1.6558447696
 H          5.6684837472       -1.8261248775        0.6126359041
 H          5.4076188588        0.3264183909       -2.4263534308
 H          2.9402550036        0.3062676428       -2.2976756014
 H          2.4680976205       -2.0083334974       -0.1484752309
 H          1.2318152792       -4.1269923020       -0.0855322440
 H         -1.2316712068       -4.1278052224        0.0527252687
 H         -2.4683760941       -2.0097922119        0.1334493697
 H         -3.1561181736        0.6016828985       -1.9531814667
 H         -5.6243159379        0.6192953459       -1.8297787922
 H         -8.7984050653        2.8025808466        3.0113475399
 H         -7.9442364357        4.8603151126        4.0849933843
 H         -5.9177072726        5.9591455592        3.1966346201
 H         -4.7814968990        5.0191279564        1.2201913222
 H         -5.6356812935        2.9897996813        0.1481578188
 H        -11.7685323452        0.8360915596        0.7748290870
 H        -13.8087620489       -0.4527228218        0.1956675957
 H        -13.6041785963       -2.6462799035       -0.9046348212
 H        -12.2359639564       -4.4340721736       -1.8353689101
 H        -10.0213637057       -5.3825796010       -2.3295023649
 H         -7.6066001963       -5.2418344144       -2.2582001583
 H         -5.5450365164       -4.0341650050       -1.6469673196
 H         -5.6653471025       -1.8277573683       -0.6093591522
 H         -5.4114100454        0.3360241061        2.4270171265
 H         -2.9438920922        0.3156220736        2.3018371181
 H         -2.4672561500        2.9127593450        0.1798720934
 H         -1.2299336847        5.0346252350        0.1065578284
 H          1.2283154789        5.0356076736       -0.0647410907
 H          2.4662036263        2.9147216766       -0.1541100801
 H          3.1583256656        0.6128272627        1.9556530525
 H          5.6263741268        0.6289344677        1.8288173669
 H          8.7950077490        2.8023136497       -3.0175710787
 H          7.9381661475        4.8566046685       -4.0956307676
