66
 xtb: 6.7.1 (edcfbbe)
C           -6.23886676154129       -0.69610068278328        0.02710835196686
C           -5.34048954316937        0.55540059867243       -0.00002285208600
C           -6.20503568408940        1.83005302585193       -0.03267613426891
C           -4.48713482947421        0.51249882717751       -1.25465129657881
C           -5.09995108076872        0.50702957913525       -2.50078523520392
C           -4.37413100069332        0.46998817252911       -3.67783329611434
C           -2.99228643691690        0.43933463901466       -3.62020958460986
C           -2.35685083140255        0.44368614118476       -2.39554482848680
C           -3.08959136406751        0.47668351665665       -1.20538398864082
N           -2.42136296035100        0.47979436718279        0.01136869166127
C           -1.00067333213344        0.44691178665250        0.01610179070701
C           -0.27446271629344        1.63935002376849        0.05507173807402
C            1.09903633438438        1.58997828390850        0.05312482284749
C            1.77238410994078        0.36320950270787        0.02153414845037
C            1.04993594570863       -0.84836968061872       -0.00681157035847
C           -0.34566680814472       -0.77257013075593       -0.01544342404363
C            1.76157612432825       -2.12091191646274       -0.02146092338442
C            1.09395643831280       -3.34766827664151       -0.02904037007428
C            1.79756535204763       -4.54552654149178       -0.03846865800883
C            1.08674382898056       -5.76877699780853       -0.04345623040751
N            0.51020744171333       -6.76043968790666       -0.05051112553682
C            3.19859557678803       -4.55497767487308       -0.04192359097050
C            3.86908415488664       -3.35690798082046       -0.03379974005264
C            3.17277865475343       -2.14195970878844       -0.02250202418673
C            3.91665319817367       -0.90233098509158       -0.00936227709842
N            5.23465316713304       -0.94733162018989       -0.01866868670471
C            5.90796838835930        0.21239597165679       -0.00422345824062
C            7.31762121089490        0.19975639167228       -0.01357605217511
C            8.01177013254442        1.38649940381075       -0.00318387978616
C            9.42691295490848        1.38506848543055       -0.01229608059933
N           10.57323814469375        1.37356673450467       -0.02083998799809
C            7.31460025757231        2.63387577504416        0.01678475598612
C            8.05414893055930        3.84039655936217        0.02411994458516
N            8.64291518612424        4.82399932673297        0.03172830180587
C            5.94023826926556        2.66568681756247        0.02825940027993
C            5.21084620914045        1.45900191654618        0.01836599854655
N            3.87065539506622        1.49436635450081        0.03154700259376
C            3.21649865666818        0.34845280413695        0.01515313841843
C           -3.09699790231583        0.53373735528570        1.22122634209457
C           -2.37194173924960        0.53711901097854        2.41652388918879
C           -3.01482094797348        0.58480510465331        3.63634041107334
C           -4.39671772306231        0.62791438316086        3.68387207988490
C           -5.11520401726294        0.61915553175332        2.50181523555496
C           -4.49475003326695        0.57216136537065        1.26032447500087
H           -6.87668347517588       -0.70923444050679        0.88730043696854
H           -6.87352611280803       -0.72237432891466       -0.87360873570092
H           -5.62516315350938       -1.59556471174711        0.01568171954113
H           -5.56715641000356        2.71239153423570       -0.01492173019555
H           -6.84178709426003        1.87300998162224        0.86970099035951
H           -6.84047094162824        1.86110591996115       -0.89000138308267
H           -6.18284700743115        0.57336051868523       -2.55921386892268
H           -4.89434324077361        0.53708158919524       -4.63035590915804
H           -2.41572827649852        0.47519638847883       -4.53412783591455
H           -1.28363487505298        0.45181580311760       -2.36827086887760
H           -0.79832505329409        2.58279039967756        0.02388180321590
H            1.68957472839854        2.49224379161122        0.02169658647218
H           -0.95196180425484       -1.66376208596320       -0.01304866615142
H            0.01713864810172       -3.39350544162905       -0.00732037632824
H            3.73109948136659       -5.49356767267706       -0.01447347038471
H            4.94693305720438       -3.32272651287110       -0.01016842108599
H            7.83207008600371       -0.74903606683393       -0.00858716756565
H            5.40305455583380        3.60176032447244        0.01275968466453
H           -1.28805550146164        0.47404942629586        2.37663844526572
H           -2.42393002557012        0.52536982046244        4.54000083542657
H           -4.90255996424083        0.59445085455064        4.63100981798249
H           -6.18734444104723        0.60715074513151        2.55729405371026
