  62
 
 C          2.7323645201       -3.7921715040        0.7842625414
 C          1.3988460733       -3.8017512556        0.4908137368
 C          0.6822603346       -2.5871408102        0.1668339235
 C         -0.6837627391       -2.5877626140       -0.1659951652
 C         -1.3990026662       -3.8025839098       -0.4920391715
 C         -2.7324660113       -3.7939230431       -0.7858724516
 C         -3.4727946098       -2.6102790355       -0.7740283541
 C         -2.8023773358       -1.4026007772       -0.4380870973
 N         -3.5389845410       -0.2116400298       -0.4111288755
 C         -4.7518844483       -0.0345566292        0.2199518303
 C         -5.4824858041       -0.9258406466        0.9948065861
 C         -6.6748545130       -0.4831413084        1.5358322999
 C         -7.1278315723        0.8177783787        1.3300703756
 C         -6.3894442698        1.7197058458        0.5860702986
 C         -5.1915505342        1.2973742817        0.0296541484
 C         -4.1804174999        1.9493854356       -0.7574189597
 C         -4.0491983370        3.2318729286       -1.2688478821
 C         -2.9300277788        3.5322339992       -2.0228643211
 C         -1.9614239172        2.5660096314       -2.2841707795
 C         -2.0706903884        1.2815907163       -1.7856572469
 C         -3.1775143386        0.9809729258       -1.0028817040
 C         -1.4630428253       -1.3919930240       -0.1649279159
 C          1.4603113840       -1.3904829272        0.1668666171
 C          2.7998917353       -1.4003098815        0.4386916801
 N          3.5368094266       -0.2095504774        0.4105417451
 C          4.7493092002       -0.0346832110       -0.2219341316
 C          5.4768245664       -0.9271603700       -0.9983370586
 C          6.6694811763       -0.4868689608       -1.5406486208
 C          7.1256889749        0.8128922382       -1.3346657584
 C          6.3902410328        1.7161017914       -0.5892941377
 C          5.1920666743        1.2961797890       -0.0316441299
 C          4.1831257741        1.9500167594        0.7567074307
 C          4.0553395732        3.2326291944        1.2686526260
 C          2.9374648284        3.5353787347        2.0236234299
 C          1.9667311024        2.5713693029        2.2851928058
 C          2.0726479841        1.2867906780        1.7862959559
 C          3.1782882001        0.9837057880        1.0028191836
 C          3.4714610600       -2.6077759242        0.7734520787
 H          3.2312479863       -4.7156778109        1.0423757578
 H          0.8578649491       -4.7320305206        0.5419308511
 H         -0.8570882465       -4.7322493130       -0.5445216424
 H         -3.2302772182       -4.7176092808       -1.0454129072
 H         -4.5086779479       -2.5906363564       -1.0689046130
 H         -5.1255102772       -1.9274313145        1.1795177663
 H         -7.2644193616       -1.1586584661        2.1376922386
 H         -8.0644386653        1.1263908526        1.7699114369
 H         -6.7329836270        2.7330806507        0.4431096054
 H         -4.8094122806        3.9756059608       -1.0836512433
 H         -2.8064232276        4.5262762822       -2.4259384689
 H         -1.1070292667        2.8250842148       -2.8916404270
 H         -1.3258304757        0.5338500616       -2.0108130900
 H         -1.0090814347       -0.4597486969        0.1315740582
 H          1.0052434129       -0.4583382586       -0.1282618384
 H          5.1172107208       -1.9277648404       -1.1832697803
 H          7.2566529798       -1.1633462576       -2.1437577412
 H          8.0624539669        1.1196027126       -1.7754814368
 H          6.7362726673        2.7286049017       -0.4462307619
 H          4.8171728781        3.9746125544        1.0830592598
 H          2.8165393242        4.5295769820        2.4271426584
 H          1.1133121718        2.8323552496        2.8932124465
 H          1.3260822972        0.5408294404        2.0116807991
 H          4.5073928754       -2.5873474992        1.0681142982
