  92
 
 C         -8.3652553457       -7.2492605086        0.4940173251
 C         -8.2021827279       -6.6148247938       -0.7265639164
 C         -7.4945903485       -5.4295524650       -0.8061478974
 C         -6.9320532577       -4.8591954591        0.3344995196
 C         -6.1733192248       -3.6027203606        0.2494404184
 C         -6.6098112508       -2.5547787587       -0.5599586875
 C         -5.8966933437       -1.3773277526       -0.6471913787
 C         -4.7165361808       -1.2098679550        0.0775943157
 N         -3.9907818443       -0.0152704978       -0.0112754966
 C         -4.6753943812        1.2042202623       -0.0915659500
 C         -4.2079562009        2.2320143306       -0.9108522924
 C         -4.8861446457        3.4309264707       -0.9835078950
 C         -6.0494047424        3.6463874055       -0.2457599356
 C         -6.7665821915        4.9275438157       -0.3229306922
 C         -7.2945563291        5.5175085791        0.8241606522
 C         -7.9663747129        6.7238416895        0.7515529243
 C         -8.1267394881        7.3603947688       -0.4682933103
 C         -7.6082401006        6.7826309095       -1.6155834598
 C         -6.9321762439        5.5785824092       -1.5440684608
 C         -6.5136350940        2.6134248053        0.5674038276
 C         -5.8411584242        1.4117071993        0.6459237063
 C         -2.5953969832       -0.0391552899       -0.0161740605
 C         -1.9017915007       -1.0875851797       -0.6244458895
 C         -0.5235777688       -1.1130391286       -0.6171299544
 C          0.2128420276       -0.0866292499       -0.0257421105
 C          1.6796722729       -0.1106338679       -0.0281253025
 C          2.3753132426       -1.2964728011        0.2081615158
 C          3.7548061316       -1.3225917666        0.2115480639
 C          4.4860422651       -0.1594034671       -0.0268136709
 C          5.9523494128       -0.1457285577       -0.0293036602
 C          6.7206276740       -1.2821679447       -0.2856170117
 C          8.1068100776       -1.1389128403       -0.2577845810
 C          9.0223184082       -2.2615844692       -0.5046819972
 C         10.2845813989       -2.2534774840        0.0869661124
 C         11.1633115443       -3.2990270005       -0.1223045452
 C         10.7978081309       -4.3619668460       -0.9332129760
 C          9.5503645084       -4.3719510717       -1.5360981611
 C          8.6653289093       -3.3307342112       -1.3238270919
 N          8.6674936211        0.0385852879        0.0155125672
 C          7.8638527962        1.0744513942        0.2332335462
 C          8.4911892589        2.3692443410        0.5196460491
 C          9.8733885210        2.5188030380        0.4210277668
 C         10.4614482468        3.7388896923        0.6958341967
 C          9.6789304526        4.8204856718        1.0699177516
 C          8.3033320264        4.6786935162        1.1683977562
 C          7.7101483908        3.4608613909        0.8951462876
 N          6.5368491402        1.0276553519        0.2146375241
 C          3.7922352309        1.0291855694       -0.2578515142
 C          2.4143061534        1.0532775160       -0.2587786102
 C         -0.4844789953        0.9640041052        0.5707043147
 C         -1.8625065243        0.9851040242        0.5872664139
 C         -4.2769081214       -2.2525302697        0.8935494071
 C         -4.9957157559       -3.4269143915        0.9749762307
 C         -7.1019779943       -5.5074174491        1.5566096183
 C         -7.8135043236       -6.6903978498        1.6351467532
 H         -8.9195901142       -8.1745396182        0.5555419939
 H         -8.6269515956       -7.0473938434       -1.6213483129
 H         -7.3570785700       -4.9500646755       -1.7647499583
 H         -7.5275444402       -2.6600434631       -1.1199013853
 H         -6.2492228759       -0.5761266220       -1.2805945902
 H         -3.3089564853        2.0821740464       -1.4910620808
 H         -4.5002785722        4.2195343389       -1.6129125676
 H         -7.1587040342        5.0355008259        1.7817249074
 H         -8.3650297071        7.1712794567        1.6510262002
 H         -8.6532797470        8.3020882554       -0.5245915138
 H         -7.7332447639        7.2723356778       -2.5709557541
 H         -6.5445857160        5.1262590098       -2.4456467937
 H         -7.4211503691        2.7498264902        1.1372343619
 H         -6.2146079942        0.6226874648        1.2825573517
 H         -2.4540589542       -1.8803624343       -1.1076321961
 H         -0.0070949405       -1.9248001683       -1.1082176218
 H          1.8253036944       -2.2026691902        0.4164011027
 H          4.2639699673       -2.2499917001        0.4294360481
 H          6.2631236512       -2.2340314505       -0.4950286985
 H         10.5544928395       -1.4184809710        0.7154149910
 H         12.1364076992       -3.2852028961        0.3464159291
 H         11.4848173411       -5.1787456541       -1.0988297522
 H          9.2663503058       -5.1932747458       -2.1778220156
 H          7.7043235961       -3.3384493217       -1.8171738284
 H         10.4677179096        1.6683800336        0.1244258206
 H         11.5333376666        3.8490432460        0.6175917763
 H         10.1407516615        5.7732313289        1.2845315671
 H          7.6928593911        5.5208004002        1.4605446507
 H          6.6415892508        3.3323310760        0.9721483438
 H          4.3602277043        1.9277643781       -0.4445686071
 H          1.8955274026        1.9791239379       -0.4596760382
 H          0.0626676901        1.7573387071        1.0584383410
 H         -2.3842943636        1.7956521385        1.0747274317
 H         -3.3675669057       -2.1331966111        1.4646717250
 H         -4.6307833254       -4.2277709107        1.6014506395
 H         -6.6886391374       -5.0694870923        2.4538343947
 H         -7.9407099554       -7.1780213007        2.5913100828
