  62
 
 O         -2.4214204037       -1.2776307712        1.5682579745
 C         -1.4530233595       -1.4531062442        0.8544468417
 C         -0.9975618322       -2.8299700263        0.5248086575
 C         -0.3266994965       -3.1821866063       -0.6477048357
 N          0.0367893172       -4.4272249776       -0.8994403643
 C         -0.2857146565       -5.3421703232       -0.0025922427
 N         -0.9423536021       -5.1340627022        1.1262514261
 C         -1.2900958862       -3.8888035039        1.3900718392
 C         -0.6387387743       -0.3385760916        0.3102006415
 C          0.7490994932       -0.4494151822        0.3029401920
 C          1.5511365246        0.6234511178       -0.0714108229
 N          2.9422410333        0.5012101835       -0.0438318965
 C          3.6915023207        0.0213915357        1.0165854455
 C          3.2818507982       -0.3786240722        2.2803888342
 C          4.2533308132       -0.7884933407        3.1747178664
 C          5.6029981254       -0.7940098150        2.8300740159
 C          6.0187386959       -0.3727697103        1.5822248034
 C          5.0607141524        0.0437445753        0.6668844135
 C          5.1335920001        0.5561944617       -0.6742345397
 C          6.1858192222        0.7886636103       -1.5507293754
 C          5.9020217260        1.2806439259       -2.8095648835
 C          4.5884229929        1.5262815367       -3.2030017256
 C          3.5249716780        1.3020023725       -2.3484224687
 C          3.8064973099        0.8310169609       -1.0742248435
 C          0.9487931057        1.8183887558       -0.4686781822
 C         -0.4258967367        1.9279349680       -0.4935126906
 C         -1.2370812753        0.8659113891       -0.0975725259
 N         -2.6260071992        1.0063157273       -0.1418089539
 C         -3.3528759582        1.9944277452        0.4987937369
 C         -2.9094892173        3.0377572074        1.2975307478
 C         -3.8603937655        3.8813534276        1.8412779792
 C         -5.2202807841        3.6916314853        1.6059236635
 C         -5.6672316512        2.6408483592        0.8289634374
 C         -4.7306036345        1.7801769936        0.2710613116
 C         -4.8327020530        0.6057301797       -0.5513125012
 C         -5.9018909770       -0.0827888602       -1.1093520230
 C         -5.6420227129       -1.1938354947       -1.8877555579
 C         -4.3346890500       -1.6101196849       -2.1283529169
 C         -3.2553371539       -0.9393731049       -1.5846704027
 C         -3.5119685593        0.1579267385       -0.7771464599
 H         -0.0808606298       -2.4543310590       -1.4112448689
 H          0.0121638154       -6.3610009527       -0.2143828348
 H         -1.8133750563       -3.7086837389        2.3207559831
 H          1.2159167044       -1.3705674426        0.6182488789
 H          2.2411407640       -0.3598947870        2.5681453561
 H          3.9581324361       -1.1064213180        4.1640394256
 H          6.3315087281       -1.1232584064        3.5561534264
 H          7.0662686564       -0.3604833391        1.3217062895
 H          7.2024605172        0.5827724843       -1.2515817153
 H          6.7061163165        1.4705630549       -3.5050637680
 H          4.3956751587        1.8966210360       -4.1991814814
 H          2.5103904277        1.4789076583       -2.6715244544
 H          1.5648677101        2.6584509934       -0.7494703060
 H         -0.8909622469        2.8464317784       -0.8176394657
 H         -1.8590052165        3.1827311205        1.5001221179
 H         -3.5415549663        4.7026814046        2.4661806194
 H         -5.9326493983        4.3728734820        2.0474439934
 H         -6.7220235300        2.4845388391        0.6600338629
 H         -6.9149216144        0.2482462827       -0.9372733689
 H         -6.4599885154       -1.7466753315       -2.3254224878
 H         -4.1586619032       -2.4727294734       -2.7545833973
 H         -2.2450777272       -1.2606170310       -1.7915414201
