  89
 
 C         -5.7383380206       -2.8982147293       -0.0106813072
 C         -4.4075448252       -3.4473228424        0.5109730962
 C         -4.6358296026       -3.9916423174        1.9282460255
 C         -3.9618246499       -4.5846144738       -0.4191116302
 C         -3.3172804591       -2.3907943712        0.5579407327
 C         -2.0250839697       -2.7601569364        1.0123040368
 C         -1.0144550252       -1.8564335730        1.0924976129
 C         -1.1978187866       -0.5035781330        0.7065292122
 C         -0.1708647831        0.4418153619        0.7962176800
 C          1.1652311254        0.0343869160        1.2820442648
 C          1.5944224227        0.3958565264        2.5555037588
 C          2.8459190705        0.0110751663        3.0023711546
 C          3.6807043051       -0.7359588179        2.1915976613
 C          3.2642856315       -1.0926181568        0.9117122967
 N          4.1063276001       -1.8427361835        0.0803559754
 C          5.4343992798       -1.5683757580       -0.1803767201
 C          6.2134774263       -0.4965804083        0.2315540567
 C          7.5249093348       -0.4481023185       -0.2004759804
 C          8.0545200129       -1.4337702282       -1.0303399498
 C          7.2771034649       -2.4885610755       -1.4646186152
 C          5.9555289053       -2.5587332071       -1.0441737682
 C          4.8816648451       -3.4744224139       -1.3095455822
 C          4.7842669636       -4.6380312380       -2.0609852957
 C          3.5771939966       -5.3069359801       -2.0912356896
 C          2.4800428702       -4.8358676876       -1.3737268996
 C          2.5525204034       -3.6812861330       -0.6183152192
 C          3.7570066278       -2.9925172022       -0.6007790286
 C          2.0076450884       -0.7034772123        0.4614324038
 C         -0.4013278197        1.7746382119        0.4273397721
 C          0.6282587991        2.7442954486        0.4823924718
 C          0.4381935260        4.0479850755        0.1145144941
 C          1.5949034615        5.0314332196        0.2045385696
 C          2.0846299314        5.0938660123        1.6584892623
 C          2.7325783326        4.5456821737       -0.7049741872
 C          1.2063799986        6.4471061047       -0.2295484263
 C         -0.8440826198        4.4195921831       -0.3529273337
 C         -1.8607550506        3.5171438011       -0.4333618960
 C         -1.6913529371        2.1663918018       -0.0404145980
 C         -2.7209981875        1.2180635217       -0.1284464269
 C         -4.0539699748        1.6272739481       -0.6127575168
 C         -4.5379604214        1.1550558321       -1.8320617419
 C         -5.7841823873        1.5308460442       -2.2886528259
 C         -6.5722717257        2.3906954198       -1.5217845832
 C         -7.8506773811        2.7773837457       -1.9823469284
 N         -8.8884871008        3.0912388232       -2.3558534977
 C         -6.0963637805        2.8685057730       -0.2997539942
 C         -4.8468307785        2.4880170210        0.1444236909
 C         -2.4897820963       -0.1152177112        0.2405090080
 C         -3.5204497238       -1.0904399584        0.1961949173
 H         -6.4765851291       -3.6971928216       -0.0311698632
 H         -6.1174794553       -2.1086063646        0.6342003379
 H         -5.6338610381       -2.5116161725       -1.0220065424
 H         -3.7367299974       -4.4526925981        2.3277557953
 H         -5.4258276661       -4.7394955315        1.9184381394
 H         -4.9318449709       -3.1857420437        2.5968541452
 H         -3.7771736915       -4.2008645516       -1.4204943017
 H         -3.0514952106       -5.0583908508       -0.0624283091
 H         -4.7384657242       -5.3440498836       -0.4786635356
 H         -1.8398029920       -3.7794513652        1.3154948809
 H         -0.0472767305       -2.1570759975        1.4688079062
 H          0.9400684764        0.9740734966        3.1910246489
 H          3.1712670236        0.2873915633        3.9945292878
 H          4.6475526111       -1.0581288723        2.5473424939
 H          5.8083408535        0.2823906446        0.8599530411
 H          8.1523920489        0.3746572198        0.1094071045
 H          9.0854657811       -1.3616758648       -1.3434301709
 H          7.6822037670       -3.2433726655       -2.1216264384
 H          5.6392799554       -5.0095505043       -2.6054462201
 H          3.4792608473       -6.2123812209       -2.6714948890
 H          1.5514543864       -5.3866778975       -1.4063029424
 H          1.6978544273       -3.3360892657       -0.0566992657
 H          1.6910033315       -0.9608216438       -0.5386097414
 H          1.5958664159        2.4117849768        0.8259207923
 H          1.2774954132        5.4142447452        2.3142555141
 H          2.9037050122        5.8043371943        1.7475001453
 H          2.4367371524        4.1240442511        1.9994262339
 H          3.5665191445        5.2432998331       -0.6671185469
 H          2.3877944290        4.4757401309       -1.7346636475
 H          3.0928077417        3.5668403192       -0.3999957413
 H          2.0689285549        7.1036797960       -0.1343448586
 H          0.4116125216        6.8456974394        0.3970323861
 H          0.8862789482        6.4653349597       -1.2688681950
 H         -1.0305912429        5.4340580457       -0.6648447200
 H         -2.8222205615        3.8303225400       -0.8137163199
 H         -3.9217809004        0.4934250239       -2.4234633445
 H         -6.1571065803        1.1666639158       -3.2348288804
 H         -6.7116060116        3.5325314374        0.2897083403
 H         -4.4759619567        2.8508452964        1.0920109240
 H         -4.4916653008       -0.7594447785       -0.1318781551
