  88
 
 C          3.2867824459        2.3371335459       -2.5504488198
 C          2.9039154210        3.6637722887       -2.4117637793
 N          1.6723625670        4.0281967508       -2.0999179387
 C          0.7770796598        3.0792556165       -1.8941568218
 C          1.0431955285        1.7184388007       -1.9803886384
 C         -0.0400224935        0.7005235550       -1.7663268560
 C          0.2902061141       -0.2942768152       -0.6337927712
 C         -0.6531249880       -1.4562170893       -0.6881105295
 N         -0.2432627390       -2.7015883866       -0.7235021268
 C         -1.3758439483       -3.4603323152       -0.9122960296
 C         -1.5374682808       -4.8347340517       -1.0351051997
 C         -2.8149848753       -5.3071499295       -1.2504922859
 C         -3.9109668364       -4.4467551056       -1.3438060079
 C         -3.7702195431       -3.0792703611       -1.2175504586
 C         -2.4913834143       -2.5963441809       -0.9949163888
 N         -1.9896056164       -1.3263076087       -0.8547070974
 N          0.5046527362        0.3058459384        0.6730990379
 C         -0.5725788672        0.9044020530        1.4540900254
 C         -1.2735766612        0.0726379398        2.5819620881
 C         -2.1068098213       -1.1241417259        2.2361818668
 C         -3.4851432785       -1.0196004993        2.0623587652
 C         -4.2399275802       -2.1661364052        1.8859550997
 C         -3.5916336008       -3.3917201592        1.9046298700
 N         -2.2837494878       -3.5095748676        2.0611836973
 C         -1.5716451879       -2.4093482703        2.2178776237
 C         -1.6162901019        1.6037578211        0.6456808864
 N         -2.6747671624        1.0852029986        0.0798496012
 C         -3.3900194348        2.1376707198       -0.4467727782
 C         -4.5878229282        2.1493463844       -1.1535481206
 C         -5.0720440000        3.3769681985       -1.5542902982
 C         -4.3935004440        4.5653213476       -1.2700012521
 C         -3.2037490263        4.5729230253       -0.5699036038
 C         -2.7136482459        3.3424690320       -0.1613065670
 N         -1.5963982590        2.9629985252        0.5461513153
 C          1.5006716334       -0.3733157813        1.5138666931
 C          2.1870211338        0.6060884312        2.5002555768
 C          2.4258565741        1.9918758627        1.9730407439
 C          1.8999655342        3.1074895085        2.6167049434
 C          2.1709686759        4.3735458216        2.1199799586
 C          2.9755375280        4.4773193567        0.9970715050
 N          3.4960250712        3.4254191483        0.3849586972
 C          3.2265536922        2.2228553370        0.8571368715
 C          2.5301631586       -1.1394380244        0.7373449165
 N          3.7759661757       -0.7893543902        0.5864653593
 C          4.3760897642       -1.8225228458       -0.0938621416
 C          5.6860680183       -1.9743649214       -0.5341096502
 C          5.9962615942       -3.1336660384       -1.2142149950
 C          5.0394988230       -4.1227386189       -1.4575666050
 C          3.7345355763       -3.9906759416       -1.0260555661
 C          3.4144083143       -2.8293609293       -0.3406815395
 N          2.2514583399       -2.3806584815        0.2326983829
 C          2.3408199467        1.3531185890       -2.3290665309
 H          4.2982197034        2.0810507784       -2.8202092552
 H          3.6051963513        4.4704531252       -2.5683637271
 H         -0.2232058940        3.4281630632       -1.6655113770
 H         -0.9884211553        1.2073720689       -1.6090641576
 H         -0.1407654383        0.0991894444       -2.6778318985
 H          1.2678300247       -0.6907923334       -0.9024864794
 H         -0.6907719423       -5.4993585379       -0.9660167440
 H         -2.9753606087       -6.3694595542       -1.3521185140
 H         -4.8910053038       -4.8633379149       -1.5188365940
 H         -4.6154163808       -2.4121080797       -1.2880193681
 H         -2.4770593574       -0.4560793673       -0.6139321147
 H         -0.0730027605        1.7116822158        2.0112999682
 H         -1.9186927862        0.7908156388        3.0958568747
 H         -0.5052303833       -0.2385175833        3.2916737756
 H         -3.9594520184       -0.0494890888        2.0855768347
 H         -5.3096466652       -2.1128406768        1.7622938971
 H         -4.1309828562       -4.3222131149        1.7987877715
 H         -0.5097766503       -2.5756587802        2.3653121030
 H         -5.1096909572        1.2314245832       -1.3723494986
 H         -5.9994461965        3.4245793726       -2.1034077369
 H         -4.8120186817        5.5002985592       -1.6075481231
 H         -2.6768439562        5.4880466078       -0.3513569206
 H         -0.8645889549        3.5707408280        0.8782617301
 H          1.0025154054       -1.1493997229        2.1247790751
 H          3.1524354680        0.1658032081        2.7584013099
 H          1.5949458108        0.6746207747        3.4155198275
 H          1.3010522244        2.9916809117        3.5113094000
 H          1.7801414132        5.2553723485        2.6032878100
 H          3.2248792250        5.4374168704        0.5671032412
 H          3.6821325572        1.3880556366        0.3443477190
 H          6.4206974977       -1.2080550758       -0.3449540135
 H          7.0035125068       -3.2849626302       -1.5711642421
 H          5.3297039421       -5.0117158950       -1.9965465368
 H          2.9912482796       -4.7509606511       -1.2126702500
 H          1.3079580512       -2.7157709881        0.0078005033
 H          2.6030322822        0.3089691063       -2.4391094171
