  62
 
 F         -1.2102896010        0.6488469555       -3.5892481183
 C         -0.7282319928        0.4509586566       -2.3759099534
 C          0.6574238026        0.8520887716       -2.1218941203
 F          1.5341120586        0.7608417331       -3.1405444043
 C          1.0245302041        0.5148300595       -0.6794441765
 C          2.4109764980        0.0023998028       -0.4266457180
 C          3.2828796099        0.5483728474        0.5179532992
 F          2.9135544670        1.5867881963        1.2602423306
 C          4.5717358797        0.0532013359        0.7019454805
 F          5.3628409428        0.6072815278        1.6167765733
 C          5.0328369830       -1.0088173502       -0.0695741241
 F          6.2599202974       -1.4853710939        0.1027209940
 C          4.1883839012       -1.5632751281       -1.0272121198
 F          4.5975000065       -2.5866577122       -1.7748332332
 C          2.9050770955       -1.0562429073       -1.1956361538
 F          2.1237104706       -1.6276802891       -2.1163883470
 C          0.9005144351        2.0184595013       -1.1178260648
 C          2.1575084671        2.7713457980       -1.3037997512
 F          3.2179780430        2.1186922036       -1.7972450994
 C          2.2993525257        4.1015949442       -1.0166240030
 F          3.4826918658        4.6867960021       -1.1964691209
 C          1.2133811453        4.8683800658       -0.5612380126
 F          1.3570976365        6.1607367311       -0.2920508683
 C         -0.0360656208        4.2401302391       -0.4336507802
 F         -1.0911150181        4.9560739953       -0.0475816595
 C         -0.1979597468        2.9085819715       -0.7109522955
 F         -1.4248466798        2.3897643426       -0.5605641278
 C         -0.1767933147       -0.2574945621       -0.0257511087
 C          0.2715691938       -1.7291794324        0.0585718842
 C         -0.1365154176       -2.7128475065       -0.8383599257
 F         -0.9502322291       -2.4062589973       -1.8441732103
 C          0.2735102746       -4.0407922865       -0.7310851498
 F         -0.1557656930       -4.9340806574       -1.6169670527
 C          1.1249249303       -4.4285220044        0.2979103651
 F          1.5254807576       -5.6894781557        0.4103330473
 C          1.5511243559       -3.4671991489        1.2096809634
 F          2.3769326410       -3.7967984492        2.2025865690
 C          1.1245466855       -2.1498877985        1.0827192409
 F          1.5729188597       -1.2727302517        1.9921769710
 C         -0.6027492512        0.1047666129        1.3941675210
 C         -0.2411105481        1.2237180821        2.1353392504
 F          0.5692769257        2.1574965975        1.6364548396
 C         -0.7011716489        1.4476660318        3.4332552749
 F         -0.3094392106        2.5468787688        4.0755214677
 C         -1.5523589466        0.5417629896        4.0485616454
 F         -1.9901767459        0.7456080965        5.2872900516
 C         -1.9436995662       -0.5846449425        3.3315794100
 F         -2.7741902425       -1.4762639753        3.8730214152
 C         -1.4772103408       -0.7812054761        2.0397520785
 F         -1.9314156158       -1.8657147772        1.3927588181
 B         -1.3991598556       -0.0614845315       -1.1287692099
 C         -2.9506281844       -0.2552732035       -1.0125657066
 C         -3.7503297594        0.2773979110        0.0047837130
 F         -3.2018082085        1.0265580398        0.9699691203
 C         -5.1292015701        0.1097732060        0.0527366174
 F         -5.8296541528        0.6441362044        1.0556613812
 C         -5.7773747881       -0.6088705372       -0.9477598113
 F         -7.0951008645       -0.7829704003       -0.9097260276
 C         -5.0235709375       -1.1264314358       -1.9973707872
 F         -5.6249356202       -1.7976837316       -2.9808527887
 C         -3.6464279289       -0.9320174722       -2.0267391946
 F         -2.9842199500       -1.4299672967       -3.0685077446
