  141
 
 C         -6.4538075037        5.5360510632        0.1848417781
 C         -4.9781766645        5.5610167472       -0.2225149753
 C         -4.9033459191        5.8739393128       -1.7241022291
 C         -4.2832177372        6.6725686169        0.5767814697
 C         -4.2759683949        4.2379704823        0.0409934054
 C         -2.9141114323        4.1231728071       -0.2673539872
 C         -2.2015976891        2.9569695331       -0.0790523671
 C         -2.8696997625        1.8615839125        0.4449131842
 C         -4.2427194530        1.9490968774        0.7611216882
 C         -4.9359376397        3.1316907219        0.5580850810
 C         -4.6363365289        0.6455385658        1.2268497616
 C         -5.8434488736        0.1050906919        1.6399048513
 C         -5.9033443605       -1.2269124172        2.0272844017
 C         -7.2049447090       -1.9070015288        2.4199304788
 C         -7.0917301492       -2.4531487548        3.8500580323
 C         -8.4055293879       -0.9581777775        2.3677192750
 C         -7.4628032516       -3.0588308752        1.4379227376
 C         -4.7193093699       -1.9750182898        2.0500540107
 C         -3.5046642820       -1.4603636765        1.6484403304
 C         -3.4769281125       -0.1559830795        1.1798847666
 N         -2.4197722406        0.5791132705        0.6850678830
 C         -1.2178640496        0.0400649484        0.2042825769
 C          0.0009340179        0.6197440535        0.6199179920
 C          1.2209044247        0.0475712152        0.1969979467
 N          2.4222559595        0.5779145663        0.6866462123
 C          2.8639611641        1.8736087571        0.5091572342
 C          2.1894175957        2.9921070538        0.0454769010
 C          2.8929529516        4.1729956477       -0.0727047944
 C          4.2527139060        4.2813244306        0.2467182500
 C          4.9418897207        5.6261153840        0.0753101021
 C          4.8630662181        6.0442177461       -1.4000921184
 C          6.4178989264        5.5873382645        0.4802848386
 C          4.2359165681        6.6707272558        0.9517269483
 C          4.9211466043        3.1511323073        0.6967245363
 C          4.2366945852        1.9537097753        0.8296872273
 C          4.6392338470        0.6315060324        1.2303534412
 C          5.8502442796        0.0790312459        1.6155426759
 C          5.9177572268       -1.2687565299        1.9424173290
 C          7.2243052633       -1.9610679872        2.2952150177
 C          7.1208438073       -2.5808551179        3.6957185833
 C          8.4199263930       -1.0046269117        2.2866059953
 C          7.4827981797       -3.0596180456        1.2540236831
 C          4.7366341641       -2.0216751319        1.9384696602
 C          3.5184848435       -1.4950444473        1.5638442839
 C          3.4839242015       -0.1726959835        1.1491817845
 C          1.2406415381       -1.0393284700       -0.6605701269
 N          2.4477529787       -1.5366463989       -1.1618687498
 C          2.9294338346       -2.8208737911       -1.0066912405
 C          2.3007596576       -3.9430785157       -0.4869498483
 C          3.0311694692       -5.1126499268       -0.4030909744
 C          4.3600255787       -5.1688604626       -0.8153415542
 C          4.9976340224       -4.0499207569       -1.3189712582
 C          4.2840012160       -2.8656931750       -1.4137893215
 C          4.6253121611       -1.5385052258       -1.8465974653
 C          5.7837578052       -0.9538219228       -2.3329571310
 C          5.7548720108        0.3845391832       -2.6821363329
 C          4.5797674485        1.1255321685       -2.5921950391
 C          3.4126022974        0.5631761562       -2.1120818933
 C          3.4550840167       -0.7594448148       -1.6956385893
 C          0.0025545396       -1.6329940086       -1.1091595431
 C         -0.0046361158       -2.5743106821       -2.1150633558
 N         -0.0139746758       -3.4102222666       -2.9225035245
 C         -1.2360215200       -1.0579312767       -0.6373150465
 N         -2.4433708270       -1.5933978782       -1.0981992743
 C         -3.4810039692       -0.8604107138       -1.6348196533
 C         -3.4790321313        0.4452737743       -2.1034302337
 C         -4.6704688655        0.9621036897       -2.5749862965
 C         -5.8299695335        0.1923626381       -2.6057985430
 C         -5.8194725176       -1.1315688525       -2.2041569465
 C         -4.6363223015       -1.6708653488       -1.7253106195
 C         -4.2537793715       -2.9721319462       -1.2498435858
 C         -4.9362673442       -4.1674274284       -1.0880532091
 C         -4.2589968964       -5.2502857785       -0.5577682815
 C         -2.9213230636       -5.1478265199       -0.1848194723
 C         -2.2215823592       -3.9661834622       -0.3349003022
 C         -2.8908089132       -2.8807755760       -0.8811292554
 H         -6.5628189810        5.3304391022        1.2472380558
 H         -7.0044043462        4.7893097218       -0.3825267807
 H         -6.9014821085        6.5071144199       -0.0170110639
 H         -5.4142871619        6.8103798468       -1.9377176469
 H         -3.8743578536        5.9634589705       -2.0610021723
 H         -5.3818641258        5.0817158310       -2.2963057365
 H         -4.7903537554        7.6215662743        0.4160620627
 H         -3.2449923329        6.7888749622        0.2792165276
 H         -4.3094459437        6.4427495855        1.6399698316
 H         -2.3905661482        4.9729880849       -0.6778116041
 H         -1.1578932165        2.8985869270       -0.3473430576
 H         -5.9850161922        3.1628731127        0.7993694026
 H         -6.7179451859        0.7336477308        1.6446025766
 H         -6.8692583699       -1.6453657625        4.5443040666
 H         -8.0299990169       -2.9160827420        4.1484106752
 H         -6.3058629230       -3.1984834560        3.9309109858
 H         -8.5486869907       -0.5639255241        1.3643558840
 H         -9.3071729217       -1.4993977810        2.6474785274
 H         -8.2816727520       -0.1311431759        3.0631811350
 H         -6.6579152310       -3.7882231224        1.4618996883
 H         -7.5370010567       -2.6710173771        0.4242382472
 H         -8.3937706228       -3.5640118574        1.6869210328
 H         -4.7431585501       -2.9999688884        2.3857775891
 H         -2.6075841113       -2.0586136111        1.6975059088
 H         -0.0003635600        1.3893385754        1.3717893324
 H          1.1462493937        2.9436788583       -0.2261096527
 H          2.3627341151        5.0413351656       -0.4327142904
 H          5.3473088763        5.2984878027       -2.0272914225
 H          3.8331143643        6.1494872331       -1.7293202198
 H          5.3662898950        6.9975763200       -1.5466553319
 H          6.5293438329        5.3112208568        1.5263191125
 H          6.9751428766        4.8859333542       -0.1363252771
 H          6.8563809878        6.5740250988        0.3450476634
 H          3.1958511556        6.7956124928        0.6641716225
 H          4.2665563755        6.3666829868        1.9960108969
 H          4.7320657571        7.6343982317        0.8580448020
 H          5.9693706092        3.1762559628        0.9423866698
 H          6.7217288734        0.7110497495        1.6461281672
 H          6.3412246546       -3.3356637326        3.7410443808
 H          6.8951595250       -1.8116749397        4.4315078154
 H          8.0637983826       -3.0512707268        3.9662794991
 H          9.3252011218       -1.5544487696        2.5362120493
 H          8.5579044467       -0.5601770915        1.3037185125
 H          8.2941128572       -0.2139081423        3.0227732652
 H          7.5522731216       -2.6197408706        0.2614648157
 H          8.4162346823       -3.5738073353        1.4735424174
 H          6.6801861998       -3.7918645199        1.2426214721
 H          4.7655628318       -3.0598795873        2.2300963065
 H          2.6237223540       -2.0979294900        1.5935956180
 H          1.2728545937       -3.9102761231       -0.1627246194
 H          2.5613041580       -6.0015929794       -0.0096054678
 H          4.8984741339       -6.1017459539       -0.7365883613
 H          6.0300745640       -4.0941683431       -1.6308472473
 H          6.6874018648       -1.5345566956       -2.4414521441
 H          6.6509141280        0.8599241282       -3.0526016952
 H          4.5766248883        2.1590223533       -2.9047331284
 H          2.4964162657        1.1325625922       -2.0745588882
 H         -2.5754192960        1.0354651961       -2.1112808623
 H         -4.6988115448        1.9821417692       -2.9278025385
 H         -6.7456692301        0.6326875742       -2.9715391289
 H         -6.7118890497       -1.7359395670       -2.2671596404
 H         -5.9753756564       -4.2478611519       -1.3690111766
 H         -4.7729742109       -6.1910692760       -0.4267229787
 H         -2.4205810265       -6.0093858044        0.2309887734
 H         -1.1868725995       -3.8948665331       -0.0391414428
