78

N     -8.097353    5.016651   -2.326084
C     -7.412713    3.918622   -1.741250
C     -6.089864    3.766137   -2.039847
C     -5.431890    2.677327   -1.453653
C     -6.081390    1.829677   -0.638069
C     -7.439929    2.029366   -0.362735
C     -8.133912    3.085906   -0.914279
O     -8.145606    1.180894    0.470501
C     -7.653830    0.066210    1.126215
C     -8.440893   -0.734322    1.949722
C     -7.874241   -1.831389    2.569194
N     -8.628565   -2.686223    3.422131
C     -6.529634   -2.169456    2.398140
C     -5.736143   -1.375927    1.577902
C     -6.344771   -0.303053    0.988927
B     -5.457071    0.603994    0.057171
C     -3.982191    0.246158   -0.139839
C     -3.107335    0.912096   -0.892783
C     -1.766686    0.516436   -1.021329
C     -1.389031   -0.599994   -0.330099
N     -0.000947   -0.976770   -0.455257
C      0.394778   -2.295244   -0.797479
C     -0.534105   -3.267754   -1.096709
C     -0.162280   -4.565437   -1.416281
C      1.146491   -4.911362   -1.442266
C      2.090049   -3.936073   -1.142177
C      3.410692   -4.355439   -1.185199
C      4.405534   -3.448836   -0.898536
C      5.705520   -3.907062   -0.952300
C      6.724339   -3.049521   -0.676824
C      6.440947   -1.758234   -0.353986
C      7.507804   -0.918210   -0.080100
C      7.238645    0.392659    0.249047
C      8.307484    1.207562    0.516515
C      8.139172    2.533220    0.854978
C      9.202875    3.371461    1.128027
C      8.988291    4.683010    1.460166
C      7.708483    5.210908    1.533329
C      6.653715    4.355543    1.256187
C      6.838393    3.032224    0.919519
C      5.753851    2.190992    0.644266
C      5.935040    0.868483    0.307330
C      4.871509    0.013231    0.029682
C      5.124936   -1.297833   -0.300398
C      4.075877   -2.145174   -0.574769
C      2.753463   -1.765374   -0.542197
C      1.727801   -2.638807   -0.821922
C     -2.238309   -1.335243    0.465947
C     -3.541228   -0.891505    0.547799
O     -4.407426   -1.610472    1.336614
H     -7.882119    6.014112   -2.092168
H     -8.845853    4.810812   -3.017747
H     -5.576662    4.456174   -2.698946
H     -4.431083    2.597768   -1.705509
H     -9.184102    3.239526   -0.701381
H     -9.474243   -0.489339    2.092410
H     -8.673489   -3.722923    3.259556
H     -9.157088   -2.297652    4.233270
H     -6.083085   -3.011824    2.870237
H     -3.343395    1.764089   -1.436081
H     -1.065449    1.061579   -1.632967
H      0.661053   -0.190718   -0.271874
H     -1.601941   -3.081128   -1.115157
H     -0.905454   -5.323026   -1.649867
H      1.439119   -5.921734   -1.690354
H      3.667038   -5.375012   -1.438435
H      5.940572   -4.949997   -1.212642
H      7.736336   -3.428210   -0.724250
H      8.523386   -1.286537   -0.124861
H      9.317169    0.833120    0.469706
H     10.203384    2.990192    1.078784
H      9.841216    5.325045    1.671361
H      7.533344    6.229755    1.791012
H      5.658265    4.738667    1.305946
H      4.737242    2.604269    0.701069
H      3.892171    0.452989    0.095066
H      2.492690   -0.760858   -0.292795
H     -1.937368   -2.213192    1.023676
