  78
 
 N         -8.3595456367        5.3974227986       -1.7069455143
 C         -7.6189065058        4.2769161964       -1.4044185420
 C         -6.3767482824        4.0555262181       -2.0128004241
 C         -5.6086880851        2.9786705055       -1.6463634537
 C         -6.0031163240        2.0530219066       -0.6687848435
 C         -7.2711297321        2.2764758235       -0.0952087782
 C         -8.0556762552        3.3699468981       -0.4508233296
 O         -7.8529391478        1.4648184863        0.8329341964
 C         -7.2688624943        0.3122864285        1.2405811017
 C         -7.9840023885       -0.4773951252        2.1267154502
 C         -7.4381819853       -1.6772518856        2.5824019198
 N         -8.1728575752       -2.5030144126        3.4023348616
 C         -6.1709999523       -2.0683714511        2.1496615022
 C         -5.4653934200       -1.2636734955        1.2702233556
 C         -5.9917050535       -0.0548780780        0.7911333359
 B         -5.2096715299        0.8241227302       -0.1745616878
 C         -3.7820711779        0.3004637177       -0.4600353603
 C         -2.7754094979        0.9449493427       -1.1925585434
 C         -1.5432838536        0.3848415851       -1.4225416914
 C         -1.2379431517       -0.8889100079       -0.9234512798
 N          0.0155032297       -1.4146619499       -1.1623609683
 C          0.3999934313       -2.7448746432       -1.1766358528
 C         -0.4981864661       -3.7530802061       -1.4545637267
 C         -0.0914978547       -5.0905382052       -1.5073848266
 C          1.2158096240       -5.4318341886       -1.3081799209
 C          2.1753681667       -4.4336540772       -1.0359764548
 C          3.5262064580       -4.7465135473       -0.8424891121
 C          4.4726609296       -3.7816414568       -0.5578955357
 C          5.8486955372       -4.1414673660       -0.3814431507
 C          6.7831293082       -3.2164601628       -0.0987879772
 C          6.4450500705       -1.8317027854        0.0491417759
 C          7.4222552317       -0.9060381841        0.3424213168
 C          7.1328685159        0.4607085916        0.5013621085
 C          8.1143146198        1.4080293723        0.7943794031
 C          7.8021049149        2.7534967696        0.9485243650
 C          8.7896200254        3.7287544459        1.2448562658
 C          8.4567556167        5.0395732566        1.3907704785
 C          7.1149071460        5.4570931921        1.2498107185
 C          6.1380153824        4.5539654243        0.9660819195
 C          6.4411446301        3.1769649347        0.8052110573
 C          5.4622192280        2.2339023957        0.5138348500
 C          5.7723162053        0.8828037542        0.3559479977
 C          4.7872781920       -0.0791996005        0.0551316412
 C          5.0791647428       -1.4152833875       -0.1070062658
 C          4.0753202003       -2.4172891636       -0.4314065760
 C          2.7420186909       -2.1059977762       -0.6306186738
 C          1.7752500177       -3.0697348724       -0.9494066379
 C         -2.1852447785       -1.5319824678       -0.1409285725
 C         -3.4296581230       -0.9492433458        0.0872238163
 O         -4.2396712792       -1.6980709115        0.8867451709
 H         -8.1553582843        5.8513104926       -2.5819566414
 H         -9.3339005558        5.3760189805       -1.4547647185
 H         -6.0322793509        4.7424004502       -2.7731783873
 H         -4.6661617107        2.8295248781       -2.1484444218
 H         -9.0161775049        3.4946210787        0.0269265995
 H         -8.9629308723       -0.1617394649        2.4526051279
 H         -7.6616376131       -3.2027597532        3.9140509541
 H         -8.9383700096       -2.0807073449        3.9007618435
 H         -5.7350084483       -2.9932940465        2.4939557956
 H         -2.9711901277        1.9297113170       -1.5853527840
 H         -0.7989968348        0.9207108603       -1.9961584928
 H          0.7015575398       -0.7515179500       -1.4902556005
 H         -1.5268096042       -3.5066298002       -1.6658857273
 H         -0.8275206701       -5.8496071983       -1.7282939368
 H          1.5360668384       -6.4617407721       -1.3603031645
 H          3.8341755688       -5.7803056981       -0.9204771846
 H          6.1118696787       -5.1844888383       -0.4868460286
 H          7.8199778218       -3.4943546274        0.0283861896
 H          8.4463599701       -1.2349890223        0.4560350347
 H          9.1410028752        1.0859705927        0.9032425380
 H          9.8148457899        3.4033540152        1.3518018165
 H          9.2145689911        5.7757861617        1.6161622215
 H          6.8755492928        6.5036275063        1.3705820897
 H          5.1094733289        4.8682212185        0.8574549590
 H          4.4351222974        2.5560369283        0.4066027093
 H          3.7748243025        0.2828578795       -0.0413749852
 H          2.4244939862       -1.0814894238       -0.5177136171
 H         -1.9701262593       -2.4785204403        0.3285879031
