  47
 
 C          7.6397184121       -0.6480439255        1.0012047946
 N          6.2058776434       -0.5887618154        0.9080432620
 C          5.2941545886       -1.1781538944        1.7400043596
 N          4.0531192631       -0.9421022531        1.3811951058
 C          4.1281884579       -0.1644898812        0.2756115969
 C          3.1567734645        0.4243012161       -0.5924408514
 C          1.7554050268        0.3158853060       -0.4358383169
 C          0.8791798900        0.9640088480       -1.3445654952
 C         -0.4781846228        0.8637869485       -1.2123134638
 C         -1.0332788266        0.1102788987       -0.1679896459
 N         -2.4384961575        0.0013944476       -0.0345489526
 C         -3.0695093367       -1.2176436267       -0.2163881053
 C         -2.3677512117       -2.3742897571       -0.5617884704
 C         -3.0317380611       -3.5736839509       -0.7308871468
 C         -4.4079471317       -3.6481239933       -0.5687477377
 C         -5.1264261955       -2.5083680596       -0.2528750279
 C         -4.4693308975       -1.2993666261       -0.0824419199
 O         -5.2334939471       -0.2055660674        0.2011412559
 C         -4.6006728107        0.9905415907        0.3725243961
 C         -5.3890398792        2.0923882462        0.6670534382
 C         -4.8012768961        3.3272025717        0.8792973557
 C         -3.4211866140        3.4558009787        0.8110906476
 C         -2.6273271897        2.3646833124        0.5158013830
 C         -3.2012450459        1.1152976160        0.2719672434
 C         -0.1852989891       -0.5334260986        0.7436711059
 C          1.1744392213       -0.4294979325        0.6190482535
 N          3.6615618246        1.1548025897       -1.6293150310
 C          4.9380048412        1.3073617698       -1.8106980212
 N          5.9246484911        0.7952141892       -1.0678941725
 C          5.4799472357        0.0711234520       -0.0321765105
 H          7.9749605229       -0.2489275354        1.9604340316
 H          7.9836311412       -1.6798206335        0.9037538811
 H          8.0546094830       -0.0493409054        0.1924562871
 H          5.5791365516       -1.7696158402        2.5861368780
 H          1.3214246409        1.5281957950       -2.1512979062
 H         -1.1356140485        1.3473439194       -1.9210361946
 H         -1.3001134054       -2.3182185981       -0.7004326786
 H         -2.4691044154       -4.4553236390       -0.9949048774
 H         -4.9224128641       -4.5868147974       -0.6980165763
 H         -6.1982577892       -2.5290833135       -0.1376689820
 H         -6.4567056267        1.9557890626        0.7300149251
 H         -5.4180922541        4.1817403563        1.1070279302
 H         -2.9567674737        4.4121756334        0.9934895544
 H         -1.5547679770        2.4656010915        0.4756561999
 H         -0.6177501958       -1.0975454031        1.5579646330
 H          1.8291103529       -0.9123453985        1.3280698415
 H          5.2479019782        1.9046499772       -2.6584220161
