  55
 
 C         -5.8556892417        2.5127383719        2.1913727587
 C         -4.5182819356        2.8497144201        2.0683430487
 C         -3.6664028064        2.0740675784        1.3019904075
 C         -4.1397162617        0.9460092772        0.6355254474
 C         -5.4929687118        0.5984250845        0.7890787150
 C         -6.3398619630        1.3807965176        1.5560286652
 O         -6.0284384180       -0.5191811604        0.2071519092
 C         -5.1995524601       -1.3043495069       -0.5484839669
 C         -5.7529305791       -2.4334266347       -1.1285205160
 C         -4.9750027404       -3.2588652614       -1.9240518722
 C         -3.6455848857       -2.9425860556       -2.1467378091
 C         -3.0849821249       -1.8169123536       -1.5692531201
 C         -3.8446990663       -0.9869699722       -0.7478936603
 N         -3.3164947199        0.1481903668       -0.1476052201
 C         -1.9548735064        0.4987560162       -0.3446357643
 C         -1.6335941184        1.6367125909       -1.0767336424
 C         -0.3094601403        1.9873377499       -1.2688505746
 C          0.7250235833        1.2076943513       -0.7477623151
 N          2.0081795556        1.5206403886       -0.9204664699
 C          2.9824917998        0.7643302163       -0.4204223632
 C          4.3550413174        1.1090234020       -0.6242268784
 C          4.6683165633        2.2680431992       -1.3546026704
 C          5.9716913732        2.6325437300       -1.5713224234
 C          7.0019232541        1.8419585516       -1.0596901708
 C          6.7147890765        0.7045699761       -0.3434120629
 C          5.3926777633        0.3015395086       -0.1005426212
 C          5.0575307909       -0.8865049219        0.6502143921
 C          6.0253264340       -1.7407246791        1.2009851803
 C          5.6751306014       -2.8646752601        1.9103568929
 C          4.3310392407       -3.1853029245        2.1064123950
 C          3.3589734436       -2.3726960717        1.5833266607
 C          3.6977072672       -1.2216061278        0.8520743873
 C          2.6521899238       -0.4040081138        0.3185112297
 N          1.3755971552       -0.7309900903        0.4982224366
 C          0.3891075881        0.0194308239        0.0034889093
 C         -0.9520546603       -0.3014464993        0.1954996228
 H         -6.5208693420        3.1193269573        2.7849805673
 H         -4.1287114414        3.7210177212        2.5713899684
 H         -2.6239292639        2.3368583994        1.2180690910
 H         -7.3723735595        1.0822216140        1.6436953118
 H         -6.7948817334       -2.6432940450       -0.9464027070
 H         -5.4109070009       -4.1380665167       -2.3709727542
 H         -3.0351486692       -3.5715045610       -2.7758950785
 H         -2.0511174967       -1.5728130473       -1.7540518443
 H         -2.4214604947        2.2438813620       -1.4960069296
 H         -0.0488798029        2.8679938865       -1.8344944095
 H          3.8491414281        2.8579237434       -1.7375278789
 H          6.2025274361        3.5253968192       -2.1334698073
 H          8.0305488611        2.1254358775       -1.2283971601
 H          7.5341687322        0.1162388150        0.0376282929
 H          7.0727391874       -1.5209624208        1.0695316032
 H          6.4445515387       -3.5026095342        2.3202050131
 H          4.0612574758       -4.0688046789        2.6659716785
 H          2.3105274164       -2.5925953519        1.7175753942
 H         -1.1989532297       -1.1779069311        0.7742952107
