  79
 
 N          5.6712670013        8.7825640665       -0.5485549942
 C          4.7996623315        8.0567118244       -0.3752815075
 C          3.7192457229        7.1701556872       -0.1622362407
 C          2.4804459387        7.6919325413        0.2825002052
 C          1.4146877389        6.8620955153        0.4830249213
 C          1.5467304962        5.4788226856        0.2443966232
 N          0.4765855368        4.6682014176        0.3485807114
 C          0.6313085068        3.3823972412        0.1396305239
 C         -0.5788404457        2.5576387138        0.1333403515
 C         -0.7462662100        1.5187064990       -0.7837312285
 C         -1.8802565232        0.7353202103       -0.7490854262
 C         -2.8708582401        0.9723470675        0.2022690591
 N         -4.0064071421        0.1383565303        0.2596797140
 C         -3.8708631664       -1.2142220820        0.5862464652
 C         -2.6452216812       -1.7791234800        0.9183563632
 C         -2.5469378785       -3.1220259866        1.2496588622
 C         -3.6714868769       -3.9221766589        1.2605189947
 C         -4.9070355770       -3.3685397628        0.9573210867
 C         -5.0105412560       -2.0283153673        0.6327034390
 O         -6.2730285545       -1.5458068013        0.3770894302
 C         -6.3909617338       -0.2075926091        0.0804980831
 C         -7.6655032083        0.2670827787       -0.1682407364
 C         -7.8637343587        1.5986326666       -0.5040861803
 C         -6.7763325043        2.4431505855       -0.6047072175
 C         -5.4962521175        1.9719573443       -0.3547114098
 C         -5.2833793469        0.6481677224        0.0106066669
 C         -2.7270073339        2.0342566578        1.0923626074
 C         -1.5959693190        2.8232757982        1.0500649434
 C          1.9413117468        2.8304938489       -0.0897436867
 C          2.1929372322        1.3868558406       -0.0985542687
 C          3.0931565802        0.8506811778       -1.0186610797
 C          3.3165013443       -0.5100780290       -1.0712550173
 C          2.6539538327       -1.3602665628       -0.1891456941
 N          2.8472638334       -2.7560866879       -0.2581532054
 C          1.7881465697       -3.5966893617       -0.6122114801
 C          0.5327522883       -3.1069568782       -0.9520920394
 C         -0.4934880323       -3.9677141340       -1.3113502049
 C         -0.2817096627       -5.3311684693       -1.3430573659
 C          0.9725850731       -5.8353937917       -1.0302527154
 C          2.0001518728       -4.9804322513       -0.6764420795
 O          3.2222578876       -5.5530234340       -0.4095968585
 C          4.2586438541       -4.7091055161       -0.0824558262
 C          5.4828003750       -5.2951868864        0.1808194996
 C          6.5695419767       -4.5133014759        0.5458415847
 C          6.4157509055       -3.1461303155        0.6589558228
 C          5.1898514934       -2.5536770744        0.3953336246
 C          4.0987147423       -3.3194704786        0.0030967812
 C          1.7920752365       -0.8234861461        0.7652038674
 C          1.5636290368        0.5356174140        0.8108240360
 N          2.9710990507        3.6174335187       -0.2844093805
 C          2.8033958020        4.9503355356       -0.1637784936
 C          3.8853173394        5.8182026325       -0.3833366397
 H          2.3946048417        8.7545779625        0.4537076810
 H          0.4574908180        7.2382745327        0.8087950803
 H          0.0028909348        1.3401119298       -1.5401293110
 H         -2.0102947573       -0.0651571567       -1.4616705694
 H         -1.7598991648       -1.1637446175        0.9209564066
 H         -1.5821629575       -3.5368155521        1.4960132951
 H         -3.5989473562       -4.9688215728        1.5103280070
 H         -5.8087440853       -3.9604975907        0.9738729327
 H         -8.4902075754       -0.4248202887       -0.0982954696
 H         -8.8620552844        1.9600485970       -0.6941032600
 H         -6.9120927917        3.4768923947       -0.8833550035
 H         -4.6542269843        2.6385569907       -0.4540055771
 H         -3.4997775732        2.2266684122        1.8214977298
 H         -1.4718091372        3.6404965816        1.7436756817
 H          3.5943623820        1.5150117116       -1.7056220869
 H          3.9959925762       -0.9238394026       -1.8013259579
 H          0.3563812455       -2.0433407860       -0.9383527517
 H         -1.4607032226       -3.5616942176       -1.5629413539
 H         -1.0783453087       -6.0051037050       -1.6157536234
 H          1.1775534099       -6.8940923803       -1.0608528317
 H          5.5633830886       -6.3678695755        0.0991041002
 H          7.5210442077       -4.9796556450        0.7472818440
 H          7.2466290935       -2.5259143787        0.9583782081
 H          5.0791343751       -1.4863487310        0.5043498947
 H          1.3071484739       -1.4805549935        1.4712735790
 H          0.9118650200        0.9422495019        1.5692413026
 H          4.8310945542        5.4099586981       -0.7058622383
