112

C    -12.935302    3.154037    0.782965
C    -11.697954    3.100940    1.419668
C    -10.868007    1.990180    1.245745
C    -11.263545    0.911482    0.434371
N    -10.410688   -0.240400    0.262379
C    -10.976510   -1.569715    0.253803
C    -10.495672   -2.555638   -0.627154
C    -11.033985   -3.845772   -0.628787
C    -12.062917   -4.173414    0.250196
C    -12.556575   -3.211586    1.128737
C    -12.017966   -1.921608    1.130847
C     -8.987811   -0.064496    0.099843
C     -8.077223   -0.907313    0.758944
C     -6.698658   -0.749509    0.590150
C     -6.191012    0.253170   -0.248096
C     -4.729274    0.409373   -0.437913
C     -4.060208   -0.370984   -1.431315
C     -4.744897   -1.296642   -2.264266
C     -4.093480   -2.072671   -3.221381
C     -2.728136   -1.945902   -3.381783
C     -2.028495   -1.039720   -2.587301
C     -2.662555   -0.232207   -1.604920
C     -1.940625    0.697824   -0.794264
C     -0.473219    0.863864   -0.996003
C     -0.041327    1.779996   -1.970194
C      1.314247    1.983176   -2.209228
C      2.276519    1.283566   -1.475973
C      3.635392    1.492031   -1.718014
C      4.601972    0.803815   -0.983746
C      4.252544   -0.117219    0.023993
C      5.218706   -0.824385    0.794573
C      6.669560   -0.634839    0.625003
C      7.439344   -1.580394   -0.065694
C      8.820766   -1.410428   -0.209803
C      9.472635   -0.288886    0.330848
N     10.899028   -0.120715    0.192537
C     11.447519    1.184004   -0.093525
C     10.825748    2.043736   -1.016059
C     11.357545    3.306515   -1.294654
C     12.517829    3.731868   -0.651897
C     13.148330    2.896772    0.267367
C     12.618128    1.633177    0.543630
C     11.778022   -1.254125    0.365759
C     12.899623   -1.433681   -0.463339
C     13.753632   -2.527571   -0.292182
C     13.500057   -3.461009    0.710003
C     12.393897   -3.302491    1.541264
C     11.539835   -2.209483    1.370750
C      8.696167    0.658952    1.018389
C      7.315692    0.485809    1.166924
C      4.784547   -1.737206    1.768728
C      3.428400   -1.955942    1.994387
C      2.466495   -1.266889    1.252778
C      1.107233   -1.487819    1.483977
C      0.141188   -0.799270    0.751161
C      0.492779    0.138125   -0.240736
C      1.875709    0.358331   -0.483529
C      2.868769   -0.340608    0.262658
C     -2.609286    1.476939    0.200957
C     -1.923135    2.403089    1.032574
C     -2.568729    3.154197    2.013906
C     -3.929388    3.005384    2.194626
C     -4.632903    2.108431    1.391264
C     -4.005191    1.328514    0.382814
C     -7.095134    1.102117   -0.903432
C     -8.474071    0.947727   -0.727726
C    -12.514932    0.987365   -0.202328
C    -13.343578    2.099140   -0.030488
H    -13.580280    4.018036    0.918670
H    -11.378496    3.921260    2.057596
H     -9.914308    1.961269    1.766674
H     -9.702748   -2.318636   -1.333083
H    -10.647537   -4.592238   -1.318030
H    -12.480869   -5.177101    0.250440
H    -13.356780   -3.464391    1.819475
H    -12.405283   -1.193792    1.840115
H     -8.438341   -1.688979    1.424309
H     -6.018712   -1.417304    1.115882
H     -5.821627   -1.429590   -2.174647
H     -4.656935   -2.772375   -3.831786
H     -2.201451   -2.546291   -4.117638
H     -0.953080   -0.976448   -2.745819
H     -0.771848    2.339942   -2.551870
H      1.611575    2.695223   -2.975517
H      3.962992    2.194232   -2.481970
H      5.647020    0.999215   -1.216195
H      6.964811   -2.458622   -0.499694
H      9.385910   -2.157995   -0.762234
H      9.930369    1.723689   -1.543370
H     10.865400    3.953803   -2.015589
H     12.932178    4.713958   -0.869056
H     14.051120    3.227335    0.774241
H     13.116383    1.003932    1.278213
H     13.106890   -0.724775   -1.261591
H     14.614807   -2.649184   -0.944344
H     14.165442   -4.309695    0.846124
H     12.195529   -4.026175    2.327763
H     10.693247   -2.096882    2.044296
H      9.166264    1.532478    1.464907
H      6.743629    1.232168    1.714904
H      5.512795   -2.281782    2.367109
H      3.132971   -2.670409    2.758954
H      0.779166   -2.197598    2.240740
H     -0.904573   -1.007727    0.970227
H     -0.849196    2.549929    0.929627
H     -2.002541    3.845621    2.632720
H     -4.449635    3.579504    2.955882
H     -5.703212    2.021500    1.572996
H     -6.726403    1.887889   -1.560215
H     -9.148599    1.611910   -1.263334
H    -12.846018    0.182058   -0.854233
H    -14.305491    2.139931   -0.534436
