  44
 
 O          4.4057246935       -2.2594656107        1.0312485008
 S          3.8909896492       -1.5552197588       -0.1365193382
 O          4.2717154867       -2.1531871760       -1.4096501447
 C          4.2336188256        0.1837172842       -0.0757943796
 C          5.4557384509        0.8046485275       -0.1119419491
 C          5.5083793587        2.1919045044       -0.0536610410
 C          4.3178888831        2.9289430430        0.0396380531
 C          3.0939258009        2.3119999779        0.0761694423
 C          3.0104578979        0.9021394939        0.0193980781
 C          1.8553136210        0.0879942839        0.0538906080
 C          0.5166418139        0.4844034117        0.1411316659
 C         -0.5036920298       -0.4518231495        0.1652518947
 N         -1.8327367841       -0.0789273946        0.2655386996
 C         -2.2509508505        1.2571696983        0.3289846997
 C         -1.7030010377        2.1551826841        1.2502797563
 C         -2.1182160678        3.4697573033        1.2776870250
 C         -3.0906401460        3.9212776606        0.3909579411
 C         -3.6874191652        3.0342889001       -0.4830068361
 C         -3.2900795508        1.7035791996       -0.5005577773
 S         -4.1049768761        0.5666032194       -1.5741973481
 C         -4.0041600877       -0.8368498764       -0.5121407946
 C         -5.0293226135       -1.7715024779       -0.5066220670
 C         -4.9635320706       -2.8640622038        0.3386642781
 C         -3.8808664123       -3.0096738543        1.2004883387
 C         -2.8499143883       -2.0954517031        1.1889550191
 C         -2.8755578009       -1.0085123405        0.3046483231
 C         -0.1887348140       -1.8515841820       -0.0239531502
 C          1.1301976850       -2.2570071446       -0.0940657762
 C          2.1369003908       -1.3265069069       -0.0256822378
 H          6.3552383012        0.2103362321       -0.1852193314
 H          6.4592205181        2.7000211502       -0.0820236067
 H          4.3750555002        4.0069966693        0.0832029179
 H          2.1904428556        2.8977992726        0.1477885445
 H          0.3008292976        1.5387620445        0.1659303480
 H         -0.9722004126        1.7967354498        1.9584097412
 H         -1.6878641995        4.1469258025        1.9987969557
 H         -3.4009795730        4.9538599263        0.4041811184
 H         -4.4734020166        3.3544434867       -1.1485920330
 H         -5.8750087218       -1.6262373353       -1.1599875442
 H         -5.7642836059       -3.5860408854        0.3453601387
 H         -3.8478629883       -3.8380606031        1.8907582932
 H         -2.0187732937       -2.1908585140        1.8706607007
 H         -0.9737005705       -2.5705247472       -0.1737731020
 H          1.3761638740       -3.3007545330       -0.2223014847
