  81
 
 N         -7.9608221641        1.8095937865       -0.1922948930
 C         -6.9010204028        1.3664857417       -0.2187545985
 C         -5.6052043105        0.8229769271       -0.2504381953
 C         -5.2930752760       -0.3956179013        0.3907313277
 C         -6.2854478534       -1.1914640348        1.1229222456
 C         -5.8983798178       -1.8110369343        2.3099388723
 C         -6.8041035425       -2.5667880458        3.0280285130
 C         -8.0987691365       -2.7271273484        2.5606009646
 C         -8.4809771495       -2.1360075195        1.3679307900
 C         -7.5820235412       -1.3696639269        0.6491002134
 N         -4.0599735305       -0.8739965531        0.3760461056
 C         -3.1286345176       -0.2197966138       -0.3121978278
 C         -1.7856077187       -0.7874999305       -0.3472589259
 C         -0.7550901522       -0.1194614828       -1.0101549339
 C          0.5134075086       -0.6551887049       -1.0395656635
 C          0.7760195749       -1.8689564355       -0.4023719364
 N          2.0598788197       -2.4196682262       -0.4553938625
 C          2.3392725460       -3.6498684385       -1.0313531811
 C          1.4739648829       -4.6542414823       -1.4361575907
 C          2.0231794455       -5.7878959944       -2.0058627286
 C          3.3981400831       -5.9190170101       -2.1827551843
 C          4.2610715819       -4.9081350052       -1.8098412578
 C          3.7318208634       -3.7607527767       -1.2335749993
 C          4.3131920978       -2.5335935088       -0.7690446253
 C          5.6326017864       -2.0826204578       -0.7547844697
 C          5.9144576820       -0.8254994294       -0.2731283446
 C          4.8714677895       -0.0586518949        0.2468079542
 C          3.5307012533       -0.5103150112        0.3215703595
 C          2.8078930804        0.4858272566        1.0673112679
 C          1.5169891541        0.5850430468        1.5792390225
 C          1.1548152965        1.7241493159        2.2691568133
 C          2.0536868178        2.7695339633        2.4633898390
 C          3.3562529402        2.6768788916        2.0164010298
 C          3.7337813800        1.5204392047        1.3491567822
 N          4.9683761645        1.1801111941        0.8435625895
 C          6.1363824887        1.9511053427        0.9403868251
 C          6.8817017131        2.2333368143       -0.2005920914
 C          8.0338701526        2.9910527504       -0.1023952414
 C          8.4456325570        3.4798727874        1.1263606966
 C          7.7029441234        3.2026667495        2.2620475413
 C          6.5548086622        2.4371862942        2.1752761801
 C          3.2502692840       -1.7403014676       -0.2819543379
 C         -0.2520046826       -2.5406320860        0.2582623944
 C         -1.5208212251       -2.0025693610        0.2856826290
 N         -3.3396365952        0.9160212874       -0.9706850864
 C         -4.5428361898        1.4636228515       -0.9248741572
 C         -4.6978552921        2.7416437037       -1.6296015647
 C         -4.0279894135        2.9205848647       -2.8387828033
 C         -4.1516533950        4.1074029324       -3.5339392632
 C         -4.9294608489        5.1336663929       -3.0218847645
 C         -5.5752228253        4.9713236157       -1.8075675618
 C         -5.4636594725        3.7819428476       -1.1111133838
 H         -4.8858836745       -1.6790977886        2.6601827004
 H         -6.5008112861       -3.0339131227        3.9533983775
 H         -8.8073142449       -3.3179742935        3.1219496797
 H         -9.4843614525       -2.2717676862        0.9932495675
 H         -7.8831613691       -0.9317206523       -0.2903971769
 H         -0.9710980692        0.8187310460       -1.4959495910
 H          1.3147451630       -0.1430433982       -1.5503475473
 H          0.4049452427       -4.5566741581       -1.3235911715
 H          1.3703271209       -6.5873673320       -2.3236600213
 H          3.7893506887       -6.8217717570       -2.6279525152
 H          5.3254520520       -5.0015604124       -1.9640079924
 H          6.4211336147       -2.7170100608       -1.1285190945
 H          6.9249482197       -0.4473862039       -0.2633128072
 H          0.8073593669       -0.2164839876        1.4638959229
 H          0.1532515759        1.8069858545        2.6642547720
 H          1.7327543895        3.6577388254        2.9870563452
 H          4.0605288558        3.4784208421        2.1809781901
 H          6.5463438911        1.8652502075       -1.1588476224
 H          8.6085360444        3.2073175718       -0.9908232226
 H          9.3435110899        4.0747627010        1.1987882967
 H          8.0236542105        3.5774061128        3.2227886240
 H          5.9846039956        2.2000869641        3.0610255547
 H         -0.0386836619       -3.4684894833        0.7675804224
 H         -2.3243531766       -2.5064812123        0.7995857881
 H         -3.4239268976        2.1130672307       -3.2237891819
 H         -3.6398287485        4.2344329181       -4.4764991348
 H         -5.0266695279        6.0617525900       -3.5654743239
 H         -6.1690765989        5.7747232950       -1.3982795909
 H         -5.9525914900        3.6739654087       -0.1548697301
