  69
 
 C          6.1789409378        0.3814596788        0.3645233725
 C          4.7567716036        0.5490418337        0.9320002478
 C          4.8132400926        1.2031515959        2.3254526762
 C          4.1194080534       -0.8212360342        1.0673113558
 C          4.7093427889       -1.7698801256        1.8918816818
 C          4.1604213157       -3.0249735865        2.0806214044
 C          2.9757641490       -3.3462147371        1.4430383327
 C          2.3696591786       -2.4234826975        0.6160444476
 C          2.9384384310       -1.1645646064        0.4003368385
 N          2.3128574082       -0.2634195504       -0.4498420592
 C          1.1389398804       -0.6679339754       -1.1377353581
 C          1.2170792433       -1.5637086961       -2.2073700353
 C          0.0304499092       -1.9447652369       -2.8018275520
 N         -1.1566425022       -1.4870228431       -2.4455787621
 C         -1.2393450298       -0.6047236099       -1.4502172844
 N         -2.4834466457       -0.1647399473       -1.0736756514
 C         -2.6568789437        0.9830839276       -0.2764492152
 C         -1.9715170821        2.1569161600       -0.5704828185
 C         -2.1978300852        3.2961946178        0.1774388472
 C         -3.1293027071        3.2711382724        1.2011921574
 C         -3.8327593108        2.1100066197        1.4746032049
 C         -3.6059617434        0.9499924621        0.7487156571
 C         -4.3075713487       -0.3723321138        0.9936725037
 C         -5.5283263491       -0.2277413299        1.9025166647
 C         -3.3146538173       -1.3370908101        1.6761958491
 C         -4.6546304867       -0.9284831728       -0.3776586376
 C         -5.8617552213       -1.5406421546       -0.6772984666
 C         -6.1033677107       -2.0646531606       -1.9363767354
 C         -5.1388201434       -1.9684774997       -2.9224141895
 C         -3.9343187041       -1.3441551529       -2.6531602243
 C         -3.6853688449       -0.8386134483       -1.3845365882
 C         -0.0945544260       -0.1881913019       -0.7454295610
 C          2.8104515252        1.0155178602       -0.6558058366
 C          2.1658612363        1.8764938561       -1.5489247369
 C          2.6270092416        3.1585396083       -1.7629538524
 C          3.7531144342        3.6041274133       -1.0949072296
 C          4.4107852877        2.7445949986       -0.2341810987
 C          3.9676756102        1.4496717157        0.0000345517
 H          6.6723555514        1.3441992497        0.2649196047
 H          6.1335372880       -0.0846561188       -0.6185311581
 H          6.7834251730       -0.2457055481        1.0138070689
 H          5.2817406065        2.1820079320        2.2753350756
 H          3.8053355327        1.3237661606        2.7193732788
 H          5.3812304599        0.5893991102        3.0188572114
 H          5.6257157144       -1.5266389764        2.4078612251
 H          4.6486301431       -3.7396816635        2.7258548192
 H          2.5176864748       -4.3135892464        1.5885212395
 H          1.4400811656       -2.6806013252        0.1311049414
 H          2.1676324276       -1.9508804815       -2.5364846722
 H          0.0172919009       -2.6529719986       -3.6205215440
 H         -1.2705462800        2.1732999689       -1.3920726810
 H         -1.6570304747        4.2026477123       -0.0499384821
 H         -3.3156657149        4.1602072560        1.7847559144
 H         -4.5608583887        2.1199610639        2.2689569998
 H         -5.2269663441        0.1612021321        2.8717969031
 H         -6.2650521180        0.4409107800        1.4632249036
 H         -5.9854116233       -1.1988855954        2.0729296091
 H         -3.0060670282       -0.9329288489        2.6382730765
 H         -2.4267581503       -1.4919328717        1.0683656544
 H         -3.7895134344       -2.3026258364        1.8368336971
 H         -6.6302154932       -1.6232546733        0.0737219995
 H         -7.0482918690       -2.5449083435       -2.1436146662
 H         -5.3246382057       -2.3672798981       -3.9086158674
 H         -3.1807367625       -1.2539262613       -3.4161420434
 H         -0.1718822148        0.4787107527        0.0988482089
 H          1.2968245044        1.5314262888       -2.0881087807
 H          2.1067406968        3.8044975622       -2.4551672307
 H          4.1233563194        4.6063607364       -1.2495739636
 H          5.2988899187        3.0989861523        0.2666777581
