  94
 
 C         -7.0293232944        1.2026865363       -5.1396225475
 C         -6.3715740371        0.8639916852       -3.8361039749
 C         -5.7634123982        1.8464089868       -3.0643768141
 C         -5.1815047381        1.5439618565       -1.8495791227
 C         -5.1844451147        0.2337838174       -1.3727670990
 N         -4.5960840340       -0.0792889650       -0.1433703207
 C         -5.1681997692       -1.0544804111        0.6810994087
 C         -6.5532964446       -1.1825048778        0.7784239653
 C         -7.1091014813       -2.1493250812        1.5913610818
 C         -6.3111985567       -3.0088256134        2.3378133766
 C         -6.9265359996       -4.0660117518        3.2039644589
 C         -4.9320334499       -2.8731409756        2.2409768690
 C         -4.3630534006       -1.9163709302        1.4241904606
 C         -3.4355838044        0.5844289071        0.2675700631
 C         -2.4365968187        0.9128072820       -0.6483837906
 C         -1.2961047184        1.5640695722       -0.2312025643
 C         -1.0994668173        1.9146610425        1.1033067506
 C          0.1912752542        2.6316973598        1.4850077044
 C          1.3119198799        1.7396320697        0.9698814793
 C          1.5146851125        0.5011634332        1.5758593358
 C          2.4898947438       -0.3706743040        1.1412995388
 C          3.2962604313       -0.0422299486        0.0526507075
 N          4.2910775059       -0.9168240977       -0.3952614367
 C          5.5041675735       -0.4080306208       -0.8707106707
 C          6.1607211153       -1.0143042487       -1.9407039709
 C          7.3627341090       -0.5120717285       -2.3976500824
 C          7.9429606134        0.6082163180       -1.8155448908
 C          9.2355891222        1.1648241910       -2.3310372103
 C          7.2803950794        1.2131354412       -0.7539624414
 C          6.0831435935        0.7154117643       -0.2813178711
 C          4.0714972327       -2.2983829430       -0.3692088214
 C          5.1083616240       -3.1774968012       -0.0582666448
 C          4.8863125078       -4.5393559686       -0.0391413656
 C          3.6310127813       -5.0685519399       -0.3161454932
 C          3.4065767228       -6.5504854148       -0.3094088811
 C          2.6004059328       -4.1877023460       -0.6190376673
 C          2.8114366991       -2.8235476149       -0.6515245051
 C          3.0741035179        1.1739649336       -0.5870570302
 C          2.0981416758        2.0419940667       -0.1360793876
 C          0.1557800875        4.0372588134        0.8506818841
 C          1.3582600706        4.9034878326        1.2249348317
 C          1.5052121021        5.0189495535        2.7369612351
 C          1.5852138134        3.6251387218        3.3468172071
 C          0.3239821070        2.8387851165        3.0042418777
 C         -2.0957369980        1.5772744698        2.0098077262
 C         -3.2459422984        0.9273612046        1.6032556351
 C         -5.7866683719       -0.7575778230       -2.1468484789
 C         -6.3735795055       -0.4399479462       -3.3549064432
 H         -6.5722346671        2.0815834017       -5.5884141176
 H         -6.9567640091        0.3714128487       -5.8375924551
 H         -8.0872974014        1.4164617099       -4.9811118150
 H         -5.7519005314        2.8684924382       -3.4158326160
 H         -4.7213699954        2.3230455498       -1.2594696257
 H         -7.1892355588       -0.5157437986        0.2145366812
 H         -8.1848380481       -2.2323946268        1.6558568466
 H         -6.2396987263       -4.3734633061        3.9889628765
 H         -7.1724550266       -4.9445663098        2.6059380708
 H         -7.8458713047       -3.7051625870        3.6605405051
 H         -4.2904301759       -3.5324414332        2.8083930389
 H         -3.2883892267       -1.8306715413        1.3551943412
 H         -2.5595062328        0.6456159009       -1.6878708633
 H         -0.5297585454        1.7874268975       -0.9588775811
 H          0.8926388198        0.2008081172        2.4055166822
 H          2.6313128782       -1.3172862662        1.6421633937
 H          5.7210321939       -1.8817329745       -2.4110143859
 H          7.8562514890       -0.9966360076       -3.2282413286
 H          9.8159116825        1.6068208334       -1.5239300009
 H          9.0407480001        1.9436444264       -3.0696671703
 H          9.8292244805        0.3888834131       -2.8087676525
 H          7.7152341926        2.0828924960       -0.2819263892
 H          5.5891028557        1.1912321395        0.5532668911
 H          6.0877854754       -2.7837845392        0.1713088141
 H          5.7017371036       -5.2052644730        0.2056679238
 H          2.3564622602       -6.7835593957       -0.1500723621
 H          3.9965923672       -7.0275174321        0.4704718645
 H          3.7073132462       -6.9796357708       -1.2661549502
 H          1.6160695425       -4.5747807233       -0.8414527822
 H          1.9990914487       -2.1550413138       -0.8970403484
 H          3.6685157877        1.4356292288       -1.4506884965
 H          1.9516677946        2.9583012475       -0.6852823830
 H         -0.7543473495        4.5296449770        1.2054345294
 H          0.0724686811        3.9630952714       -0.2344480011
 H          1.2331945388        5.8955752808        0.7837856623
 H          2.2749989777        4.4718849235        0.8218634290
 H          2.4013861611        5.5932105141        2.9813145975
 H          0.6442098555        5.5480666610        3.1532738341
 H          1.6881829272        3.6958844035        4.4320876165
 H          2.4616693721        3.1015605432        2.9582953309
 H         -0.5383155053        3.4075330262        3.3594076672
 H          0.3362581239        1.8822594709        3.5263357856
 H         -1.9967702176        1.8202102112        3.0555884415
 H         -4.0090451405        0.6818599911        2.3276377773
 H         -5.7879274045       -1.7788769373       -1.7948581623
 H         -6.8345851465       -1.2224381100       -3.9410141855
