  131
 
 C         -3.6278419160        5.0700109778        4.6064751462
 C         -4.7268299598        4.1917228979        3.9911992750
 C         -5.8007392446        5.1131769365        3.4066766305
 C         -5.3761313056        3.3307266698        5.0840630599
 C         -4.1057881638        3.2797366452        2.9454557515
 C         -3.0765615341        2.4149785118        3.3120714589
 C         -2.4731073042        1.5784369765        2.3982719408
 C         -2.8756011199        1.5802682862        1.0643814969
 N         -2.2298634867        0.7581355935        0.1309255191
 C         -2.9654482231        0.0847357904       -0.8434559251
 C         -2.4386180315       -0.1518039128       -2.1130531008
 C         -3.1849101373       -0.8058821858       -3.0694475132
 C         -4.4841842248       -1.2432597917       -2.8193553273
 C         -5.2768652185       -1.9211073307       -3.9260125134
 C         -4.5275519421       -3.1754797939       -4.3945543674
 C         -5.4288924958       -0.9407608304       -5.0980930728
 C         -6.6768050041       -2.3461868176       -3.4746923121
 C         -4.9970335058       -1.0092890557       -1.5491341527
 C         -4.2562413223       -0.3650214586       -0.5767569691
 C         -0.8357967483        0.6602199992        0.1782231809
 C         -0.2114624111       -0.5494051804       -0.1024944076
 C          1.1790246738       -0.6341619973       -0.0915487450
 C          1.9609226318        0.4903288635        0.2423905391
 C          1.3013545218        1.6871219101        0.5816370837
 C         -0.0819864913        1.7816878900        0.5151644164
 N          2.0563954460        2.7950155375        0.9337515769
 C          1.5667386854        3.7420535695        1.8428297467
 C          0.7225528464        3.3562506965        2.8809921031
 C          0.2836564196        4.2835441834        3.8030570768
 C          0.7078666559        5.5976499085        3.7164544497
 C          1.5813310996        5.9748167382        2.7112516772
 C          2.0190592313        5.0625512117        1.7636873450
 C          2.9405097967        5.4007172090        0.6123807926
 C          2.0924739859        5.4796759022       -0.6752192448
 C          3.6483948159        6.7421969422        0.8000308120
 C          3.9056182462        4.2379535108        0.4584604700
 C          5.2391715453        4.3994165228        0.1356432167
 C          6.0338126418        3.3015982698       -0.1654231736
 C          5.4949155071        2.0354842611       -0.1472796583
 C          4.1685609253        1.8050790252        0.2305433079
 C          3.3853797572        2.9356184610        0.5394655347
 B          3.4740666320        0.4217138344        0.2304864830
 C          4.0492266769       -1.0017950919        0.1123720955
 C          5.3905950726       -1.3391171138        0.3364247908
 C          5.9001657656       -2.6094132727        0.1569153173
 C          7.3576102530       -2.9701064196        0.3977558868
 C          7.9680075466       -3.4934869969       -0.9101721610
 C          8.1914466149       -1.7747542810        0.8671378338
 C          7.4324882251       -4.0588659970        1.4774216425
 C          5.0094550804       -3.5950981902       -0.2780073089
 C          3.6763845744       -3.3249944927       -0.4690225173
 C          3.1638983242       -2.0401616373       -0.2491361492
 N          1.8059511381       -1.8221272211       -0.3970245025
 C          0.9780724734       -2.8957021290       -0.8372526415
 C          0.6043401055       -2.9840773606       -2.1684533728
 C         -0.2280582860       -4.0051040491       -2.5930602174
 C         -0.7074707502       -4.9609783238       -1.7057440546
 C         -1.6397160616       -6.0857936985       -2.1258977107
 C         -1.8879584040       -6.1130257990       -3.6362902968
 C         -2.9852493381       -5.8868591117       -1.4132255282
 C         -1.0299703406       -7.4361561334       -1.7239133657
 C         -0.3239390556       -4.8540824444       -0.3702475381
 C          0.5058894607       -3.8403133208        0.0643183721
 C         -3.9139899965        2.4257519146        0.6894333250
 C         -4.5151782476        3.2555125851        1.6174416495
 H         -2.8939089599        4.4709703919        5.1375519189
 H         -4.0621932770        5.7759508113        5.3114298731
 H         -3.1115935504        5.6288095901        3.8285175203
 H         -5.3845646958        5.7554515008        2.6339599403
 H         -6.2009808770        5.7490805031        4.1939500907
 H         -6.6249609959        4.5396805599        2.9889321676
 H         -4.6453502378        2.6868479167        5.5658111945
 H         -5.8264561443        3.9653519168        5.8445674053
 H         -6.1531209489        2.7014932224        4.6546558831
 H         -2.7370310412        2.3814961729        4.3362422349
 H         -1.6832582966        0.9106063635        2.7102526195
 H         -1.4421033642        0.1911664412       -2.3489062088
 H         -2.7395156953       -0.9608931949       -4.0409571049
 H         -3.5336933898       -2.9286232000       -4.7582534631
 H         -4.4293126803       -3.8790995416       -3.5705606084
 H         -5.0742058698       -3.6626333598       -5.1996136773
 H         -4.4616193153       -0.6555466344       -5.5024477177
 H         -5.9394062730       -0.0382418247       -4.7684931755
 H         -6.0121085062       -1.3958313862       -5.8961304478
 H         -7.2669009644       -1.4858377282       -3.1679807577
 H         -6.6243499612       -3.0544209898       -2.6508271378
 H         -7.1931386448       -2.8299620997       -4.3016324649
 H         -5.9923569016       -1.3321749308       -1.2902921588
 H         -4.6826835548       -0.2042205191        0.4028397933
 H         -0.8206406487       -1.4111793961       -0.3256133789
 H         -0.5798918134        2.7192416738        0.7112550926
 H          0.4223724731        2.3238023841        2.9667205787
 H         -0.3772493947        3.9753295689        4.5985620031
 H          0.3678100847        6.3277619432        4.4355605844
 H          1.9144721516        6.9993397176        2.6729755471
 H          2.7346859679        5.6764139681       -1.5313898846
 H          1.3621317672        6.2822328986       -0.5911082910
 H          1.5612222092        4.5479443733       -0.8522726048
 H          4.2732953973        6.9625559016       -0.0616637135
 H          4.2662629306        6.7353702210        1.6953749348
 H          2.9181984188        7.5438895494        0.8788852685
 H          5.6753559986        5.3836841629        0.0809309636
 H          7.0679711925        3.4521688639       -0.4402423549
 H          6.1040907307        1.1978381346       -0.4487619840
 H          6.0333055149       -0.5495967993        0.6861913297
 H          7.8970809477       -2.7349942765       -1.6872468175
 H          9.0176152651       -3.7406596365       -0.7632010319
 H          7.4545431822       -4.3856353003       -1.2581777712
 H          9.2203818717       -2.0910378733        1.0285828865
 H          8.1968029286       -0.9842615523        0.1202922464
 H          7.8111158371       -1.3756857741        1.8045523061
 H          6.9874017901       -3.6997771910        2.4032141740
 H          8.4694337015       -4.3251185041        1.6729662399
 H          6.9026511757       -4.9568014065        1.1711239077
 H          5.3567561379       -4.6018139929       -0.4581362436
 H          3.0188062730       -4.1216883535       -0.7847180824
 H          0.9649230761       -2.2461634853       -2.8699731378
 H         -0.4979573394       -4.0393549496       -3.6354640716
 H         -2.3712910633       -5.1999243924       -3.9727669022
 H         -2.5427748359       -6.9469874547       -3.8807242852
 H         -0.9560416625       -6.2466227141       -4.1810774957
 H         -3.6977493619       -6.6433839511       -1.7351463504
 H         -3.3911878570       -4.9037925877       -1.6447369633
 H         -2.8737030548       -5.9593553441       -0.3347053728
 H         -0.0585478632       -7.5653141427       -2.1966752774
 H         -0.8989301451       -7.5135880941       -0.6484804541
 H         -1.6796556796       -8.2478712924       -2.0440313137
 H         -0.6806668286       -5.5698821001        0.3544599785
 H          0.7916724040       -3.7713170686        1.1037822330
 H         -4.2446357820        2.4369192979       -0.3392026453
 H         -5.3101660578        3.8983772001        1.2762512784
