  80
 
 C         -5.8350961801        2.8601362871       -1.9755064542
 C         -6.0544135144        1.7281318659       -0.9540578766
 C         -7.5327318766        1.6783570509       -0.5240643388
 C         -5.2063417850        2.0031409412        0.2704603149
 C         -5.4022516218        3.1728515422        0.9913616300
 C         -4.6728136600        3.4630068367        2.1295343658
 C         -3.7245031251        2.5582400370        2.5788359766
 C         -3.5078116893        1.3897670763        1.8840022243
 C         -4.2303544850        1.1006444371        0.7182094466
 N         -3.9803851206       -0.0713743566        0.0348412734
 C         -2.9965322877       -0.9723955866        0.5415399682
 C         -3.4227427734       -2.1106503346        1.2436470649
 C         -2.5054202154       -2.9969002835        1.7640439709
 C         -1.1499578290       -2.7421172882        1.5820944952
 C         -0.7154602386       -1.5818188599        0.8716122272
 C         -1.6501372857       -0.7037959998        0.3484983881
 C          0.7171543353       -1.5799594342        0.8732088283
 C          1.6507092726       -0.6993868958        0.3523831525
 C          2.9973654382       -0.9644240064        0.5485261166
 N          3.9799898518       -0.0604273198        0.0447730900
 C          4.6818637738       -0.4023341192       -1.0921050674
 C          4.3667585066       -1.5906282482       -1.7653764901
 C          5.0591579028       -1.9681558156       -2.8937086558
 C          6.0777588418       -1.1642132063       -3.3797364428
 C          6.3770924199        0.0198875074       -2.7314407279
 C          5.6955729010        0.4272628918       -1.5931748222
 C          6.0517325250        1.7453278603       -0.9375463517
 C          7.5289949885        1.7004610565       -0.5034213571
 C          5.8315123343        2.8766060695       -1.9596139811
 C          5.1992660372        2.0175625246        0.2845350620
 C          5.3896067852        3.1877057593        1.0062289834
 C          4.6559696091        3.4755009592        2.1422972416
 C          3.7089926849        2.5678668219        2.5886141398
 C          3.4977499196        1.3989264190        1.8928925497
 C          4.2245507066        1.1121530644        0.7291641331
 C          3.4249588295       -2.1017476906        1.2513130946
 C          2.5087879143       -2.9904991868        1.7694604773
 C          1.1530747940       -2.7391850187        1.5845730658
 C          0.0020365786       -3.4983898282        2.0362284260
 O          0.0026949832       -4.5639253870        2.6857110610
 C         -4.6776068902       -0.4153971977       -1.1042584889
 C         -4.3568970853       -1.6028250751       -1.7764083427
 C         -5.0444707526       -1.9823656231       -2.9070135626
 C         -6.0637546647       -1.1813574340       -3.3964400215
 C         -6.3686925735        0.0018519142       -2.7491285864
 C         -5.6921058877        0.4112188623       -1.6086359997
 H         -6.4433322976        2.7049805359       -2.8620168782
 H         -4.7896759373        2.8895341392       -2.2767837711
 H         -6.0965158137        3.8239498450       -1.5481023392
 H         -7.8341426913        2.6155656871       -0.0648618098
 H         -8.1783893067        1.4939580681       -1.3779616979
 H         -7.6813509642        0.8783174451        0.1986485168
 H         -6.1465642033        3.8816671340        0.6617762283
 H         -4.8491628758        4.3832204689        2.6649921217
 H         -3.1551404486        2.7618321204        3.4729511712
 H         -2.7761654819        0.6829549102        2.2416067276
 H         -4.4827587142       -2.2755815797        1.3704937148
 H         -2.8251032614       -3.8727122667        2.3073565072
 H         -1.3477079947        0.1810225926       -0.1933655344
 H          1.3471793140        0.1847540936       -0.1899716705
 H          3.5692360070       -2.2133301493       -1.3923011280
 H          4.8033148122       -2.8890616791       -3.3951540096
 H          6.6302780862       -1.4527947767       -4.2606637219
 H          7.1655589998        0.6404164467       -3.1293915715
 H          8.1776866214        1.5185800951       -1.3555544966
 H          7.6783220104        0.9006908324        0.2194418252
 H          7.8259273479        2.6385332640       -0.0430710032
 H          4.7867831265        2.9027228676       -2.2635820573
 H          6.4425050764        2.7232975151       -2.8445515671
 H          6.0888114557        3.8412438503       -1.5315636610
 H          6.1327918849        3.8987739701        0.6789605296
 H          4.8280454151        4.3961142622        2.6784574640
 H          3.1364089726        2.7695874117        3.4810949183
 H          2.7671166212        0.6899272244        2.2482217641
 H          4.4851124691       -2.2639135995        1.3805553071
 H          2.8295379034       -3.8655755794        2.3133290096
 H         -3.5588592405       -2.2232512324       -1.4006559294
 H         -4.7843308498       -2.9025521011       -3.4075676330
 H         -6.6124991315       -1.4715298723       -4.2792017749
 H         -7.1576817434        0.6200551170       -3.1496549043
