  68
 
 O          5.4362883628        1.8818845000       -1.3859447332
 C          5.8286228553        0.8968547554       -0.7867542215
 C          7.2024043709        0.8369929341       -0.2284775275
 C          7.8451008626        2.0364446192        0.0866067424
 C          9.1147107952        2.0290884713        0.6356313866
 C          9.7669412984        0.8284146836        0.8745266497
 C          9.1473611814       -0.3698083455        0.5492517479
 C          7.8778673305       -0.3557109749        0.0093176428
 S          7.1073652723       -1.8805943689       -0.5132971256
 O          7.3573957466       -2.0410077758       -1.9306918363
 O          7.5213032687       -2.9703090354        0.3390205507
 C          5.3712165783       -1.5414646654       -0.2923312136
 C          4.4876993897       -2.5643810622       -0.0126293209
 C          3.1310458700       -2.3005712846        0.0673974843
 C          2.6437375086       -1.0106973582       -0.1550924583
 C          1.2021295121       -0.7312706537       -0.0957797796
 C          0.6091597956        0.1363084583       -1.0123233389
 C         -0.7478299062        0.3869299634       -0.9610834922
 C         -1.5590976059       -0.2067782330        0.0032851201
 Si        -3.4261854218        0.1367253897        0.0287528536
 C         -4.2800603351       -0.8826471187       -1.3237357538
 C         -5.6588114527       -1.0776061891       -1.2874249527
 C         -6.3063620255       -1.7954826328       -2.2768092868
 C         -5.5814679887       -2.3374873527       -3.3258217942
 C         -4.2089498151       -2.1586546271       -3.3748503288
 C         -3.5677914724       -1.4383092980       -2.3821462651
 C         -4.1522300453       -0.3608125016        1.7093216734
 C         -4.4234822965        0.5831560318        2.6952066213
 C         -4.9485619007        0.2073508557        3.9192739502
 C         -5.2126710621       -1.1269768082        4.1804264329
 C         -4.9498617469       -2.0806380468        3.2103519130
 C         -4.4256745540       -1.6978935385        1.9888109501
 C         -3.6890836106        1.9895298031       -0.2810914507
 C         -4.7226328764        2.4524232231       -1.0897492756
 C         -4.9167507704        3.8068712494       -1.2968882151
 C         -4.0756589964        4.7278561762       -0.6946375239
 C         -3.0397072235        4.2852329590        0.1118178798
 C         -2.8508790675        2.9298148024        0.3136763122
 C         -0.9573625742       -1.0621626633        0.9211690804
 C          0.3979161332       -1.3268092652        0.8745748171
 C          3.5509411560        0.0069125695       -0.4414128712
 C          4.9203245163       -0.2422667663       -0.5064095611
 H          7.3239256025        2.9625608100       -0.1049765607
 H          9.5983319370        2.9631909061        0.8767363962
 H         10.7562328000        0.8220664356        1.3050367519
 H          9.6273289791       -1.3226766820        0.7096636476
 H          4.8817301623       -3.5573278346        0.1389713204
 H          2.4420899752       -3.1041131950        0.2769700221
 H          1.2128721098        0.5940641718       -1.7824355044
 H         -1.1905123139        1.0603057378       -1.6811938632
 H         -6.2297819695       -0.6627377673       -0.4682647871
 H         -7.3776289463       -1.9344235435       -2.2312005039
 H         -6.0844063569       -2.8984869319       -4.1007891698
 H         -3.6376746992       -2.5829513727       -4.1887993832
 H         -2.4961606988       -1.3068126129       -2.4264653549
 H         -4.2254275557        1.6267911990        2.4967781130
 H         -5.1542522942        0.9559194985        4.6717367617
 H         -5.6241575489       -1.4227954301        5.1350734666
 H         -5.1563852520       -3.1234291296        3.4075926646
 H         -4.2293580013       -2.4462350600        1.2335391505
 H         -5.3801778040        1.7401044758       -1.5672701504
 H         -5.7248977044        4.1461599674       -1.9298323675
 H         -4.2251605391        5.7862676607       -0.8547814357
 H         -2.3784152388        4.9994964677        0.5824551350
 H         -2.0369120476        2.5915003479        0.9397133501
 H         -1.5625323281       -1.5241180826        1.6874165879
 H          0.8431985406       -1.9800345881        1.6106420709
 H          3.2097161362        1.0192596726       -0.5993548397
