71
 xtb: 6.7.1 (edcfbbe)
C           -3.47457448362647       -1.75841734852827       -2.43279400355251
C           -2.33867911405691       -1.03016786943006       -2.13423680790597
C           -2.37211584491497       -0.03763946326785       -1.15546751633629
C           -1.15094596108272        0.72684263527543       -0.85482212675315
C           -1.19443590181671        2.02910892486254       -0.35121885351115
C           -0.00000735146700        2.68344822537537       -0.10576620521027
C            1.19441958317716        2.02910421607328       -0.35121309365018
C            1.15092704286991        0.72683732962257       -0.85481399604972
C            2.37209643680776       -0.03764185423915       -1.15546717893438
C            2.33865305845311       -1.03017379008419       -2.13423294169367
C            3.47454420880999       -1.75842919750082       -2.43279106798177
C            4.66124005871324       -1.51222067591169       -1.76431099832280
C            4.70237306761533       -0.53612013245852       -0.77296473937793
N            5.89324025148067       -0.28642012698055       -0.07346524704487
C            6.66767617864078       -1.23019045237881        0.57285081068079
C            6.46299812352260       -2.59602329974462        0.71103702506134
C            7.39328173469443       -3.31786297930462        1.43465039733215
C            8.49887836835138       -2.70161220157754        2.01875502650093
C            8.69474490688194       -1.33947155462569        1.90552847466557
C            7.77350878392079       -0.59193972008232        1.18208083605320
C            7.65337392986943        0.80744734834779        0.88090741871535
C            8.42540412952038        1.92200410797326        1.18442871341722
C            8.02576484775802        3.15455927981710        0.70696084464323
C            6.88181757590020        3.28212287861388       -0.07961014106298
C            6.09703254202359        2.18884190263206       -0.39363827774636
C            6.47855255605331        0.95118461886868        0.10594574423054
C            3.55973136016575        0.19498602247442       -0.46976037551908
N           -0.00001021152423        0.11275829500527       -1.10952485536026
C           -3.55974760368164        0.19498722587750       -0.46975577824552
C           -4.70239500314574       -0.53611072516915       -0.77295998878380
N           -5.89325840617589       -0.28638518232860       -0.07346356244566
C           -6.47852685876573        0.95123833233277        0.10597027547022
C           -6.09699051405642        2.18888619320462       -0.39362535529210
C           -6.88173988181600        3.28218752023620       -0.07957734445104
C           -8.02567344786019        3.15465479908216        0.70701876240919
C           -8.42533677971244        1.92210867121955        1.18448848743362
C           -7.65333797866698        0.80753396404477        0.88095325233231
C           -7.77348804702433       -0.59184519594088        1.18215703878101
C           -8.69471416083728       -1.33934857559045        1.90564659776503
C           -8.49889620428200       -2.70149886840181        2.01884533277101
C           -7.39335632427365       -3.31778842338907        1.43467270451788
C           -6.46307273751822       -2.59597384981230        0.71103466078233
C           -6.66770776421255       -1.23013230544997        0.57286981412995
C           -4.66126869585338       -1.51220871618010       -1.76430988349979
H           -3.43473109564930       -2.52214993546152       -3.17934925811329
H           -1.40594761034168       -1.21702769735558       -2.62547394248496
H           -2.13571377269202        2.52038489763371       -0.14857318288480
H           -0.00000540480230        3.68970315895743        0.30437737711771
H            2.13570043703589        2.52037955628305       -0.14857145907049
H            1.40592085790458       -1.21702580249418       -2.62547438379077
H            3.43470842167645       -2.52213123724173       -3.17938078204604
H            5.55447169152347       -2.06425085698726       -1.99855749888842
H            5.61334032660778       -3.07805000709263        0.28629659867100
H            7.28915565862822       -4.38055338214567        1.54140544277171
H            9.24922430572239       -3.29706186630448        2.53354271775214
H            9.58320574240318       -0.85635066633864        2.32431796865066
H            9.35487591665349        1.82394475685139        1.72913053295686
H            8.63055444430059        4.03605396669981        0.89589705252602
H            6.60075749380585        4.25897406172484       -0.45750915564785
H            5.21149985785816        2.29538685376837       -1.00052174325496
H            3.60681610735576        0.91737872628732        0.34749438668478
H           -3.60683275342755        0.91739204207496        0.34749157605438
H           -5.21148818615700        2.29539656126867       -1.00057210995937
H           -6.60068165793810        4.25902090089824       -0.45753929459920
H           -8.63043393197716        4.03616899340014        0.89594663919380
H           -9.35477972931439        1.82408423058236        1.72923017825365
H           -9.58318443573365       -0.85620105099089        2.32441382351388
H           -9.24926269522282       -3.29691838645527        2.53364625743145
H           -7.28924089410917       -4.38046825535294        1.54148168216516
H           -5.61341592815399       -3.07801578903385        0.28633189551644
H           -5.55449041287171       -2.06426658330017       -1.99852287939301
