  94
 
 C          9.5700372214        1.9404760796       -1.2968703609
 C          9.7154310481        2.9931919274       -0.4049825998
 N          8.8040611091        3.2999972559        0.5025002760
 C          7.7095747497        2.5673528225        0.5629961980
 C          7.4538032260        1.4787194530       -0.2729020021
 C          6.2079920077        0.7113854883       -0.1558985221
 C          4.9992716848        1.3952255910       -0.1126055770
 C          3.7804277347        0.7270944821       -0.0582186217
 N          2.6120995797        1.3700887433       -0.0252453890
 C          1.4596659435        0.7132790276        0.0204846982
 C          0.2176179998        1.4165359235        0.0600977280
 C          0.2227581466        2.8213572641        0.0159065057
 C         -0.9446526603        3.5342508859        0.0229742913
 C         -2.1678087326        2.8513146446        0.1040276999
 N         -3.3820669642        3.5761181639        0.0979253001
 C         -4.3035842826        3.4093764491       -0.9348093602
 C         -4.0836107534        2.5438070807       -2.0012644831
 C         -5.0286539484        2.3978831677       -3.0035275901
 C         -6.2051065478        3.1209647419       -2.9675412156
 C         -6.4272571585        4.0122111291       -1.9294069625
 C         -5.4872316620        4.1632160687       -0.9259284182
 O         -5.7640421272        5.0849456650        0.0498148004
 C         -4.8516308712        5.2312236008        1.0621582663
 C         -5.1526472294        6.1471953400        2.0537049398
 C         -4.2903290028        6.3256426052        3.1244787930
 C         -3.1376459232        5.5683065874        3.2056505028
 C         -2.8295303033        4.6505879102        2.2146898634
 C         -3.6661421007        4.4832755601        1.1164277876
 C         -2.1912163818        1.4743310619        0.1724485619
 C         -1.0124056730        0.7191108840        0.1315043911
 C         -1.0103098403       -0.7225406014        0.1326345636
 C         -2.1869407275       -1.4811437505        0.1738524754
 C         -2.1593488777       -2.8581837213        0.1081004853
 N         -3.3713873865       -3.5867918105        0.1031553994
 C         -4.2934042291       -3.4250273712       -0.9299179763
 C         -4.0760136211       -2.5612442943       -1.9983365870
 C         -5.0210203704       -2.4212047134       -3.0014811399
 C         -6.1947253279       -3.1487051412       -2.9645463540
 C         -6.4144841832       -4.0377584455       -1.9240386252
 C         -5.4747474156       -4.1824682752       -0.9193763228
 O         -5.7495948467       -5.1015758072        0.0594057433
 C         -4.8376897643       -5.2414027405        1.0730964748
 C         -5.1377862375       -6.1533116883        2.0686615928
 C         -4.2754030274       -6.3260718213        3.1403059187
 C         -3.1234074127       -5.5673570072        3.2180659040
 C         -2.8165453803       -4.6531910709        2.2234277631
 C         -3.6535598405       -4.4911125026        1.1246797849
 C         -0.9341568013       -3.5376637394        0.0293874752
 C          0.2311580450       -2.8213447641        0.0219074866
 C          0.2218111692       -1.4164797553        0.0634353044
 C          1.4617696843       -0.7096561799        0.0229064680
 N          2.6162191014       -1.3632245796       -0.0192260981
 C          3.7826260665       -0.7168862786       -0.0540166049
 C          5.0041201995       -1.3816054825       -0.0867377173
 C          6.2110563028       -0.6943266205       -0.1269162004
 C          7.4643836950       -1.4576455381       -0.0977400808
 C          8.4962146506       -1.1492309817        0.7884737634
 C          9.6507066600       -1.9104140488        0.7714514462
 C          9.7358581881       -2.9630105853       -0.1283001921
 N          8.7625697944       -3.2741547411       -0.9674477885
 C          7.6636517721       -2.5460029019       -0.9493823126
 C          8.4204694144        1.1745160458       -1.2311426277
 H         10.3341422956        1.7294074613       -2.0290753485
 H         10.5951929352        3.6229372857       -0.4161797697
 H          6.9989825305        2.8477504890        1.3305999571
 H          4.9868804951        2.4739199527       -0.1462302578
 H          1.1785918404        3.3183999743       -0.0439302668
 H         -0.9400827235        4.6119430891       -0.0397154312
 H         -3.1618527589        1.9865389227       -2.0532606780
 H         -4.8333114202        1.7146213242       -3.8154346392
 H         -6.9449396002        3.0063677624       -3.7436495275
 H         -7.3249083036        4.6074633168       -1.8808300154
 H         -6.0699443250        6.7075951211        1.9700816168
 H         -4.5300254926        7.0449377567        3.8913202285
 H         -2.4680751781        5.6831430209        4.0438983685
 H         -1.9344642838        4.0544836644        2.2963246875
 H         -3.1512989199        0.9887105206        0.2497621218
 H         -3.1485213547       -0.9982083491        0.2492785779
 H         -3.1562543369       -2.0007574697       -2.0512173528
 H         -4.8277767969       -1.7391430959       -3.8148908863
 H         -6.9342857157       -3.0391023083       -3.7416378887
 H         -7.3100456535       -4.6360766453       -1.8744123499
 H         -6.0544153115       -6.7151418447        1.9873588385
 H         -4.5144407826       -7.0421425451        3.9103734174
 H         -2.4534325683       -5.6781769113        4.0565344702
 H         -1.9221317419       -4.0557882876        2.3026606954
 H         -0.9263623902       -4.6154575694       -0.0311394384
 H          1.1885236805       -3.3156646055       -0.0359916489
 H          4.9971410286       -2.4603071943       -0.0512548852
 H          8.3845261741       -0.3329418675        1.4881442903
 H         10.4647111092       -1.6957574849        1.4466253038
 H         10.6168128687       -3.5890067555       -0.1805633615
 H          6.9008251215       -2.8297189591       -1.6637728585
 H          8.2619903190        0.3578941363       -1.9213278095
