  63
 
 C         -7.7626897410        1.6658743665        1.4215103723
 C         -6.5226565563        2.4370199345        1.8584495736
 C         -5.6723645374        2.9296047472        0.6860426974
 C         -5.0916003490        1.8297524487       -0.2049986819
 C         -4.0969238107        0.9268873568        0.5218494611
 C         -3.4985086018       -0.1557375856       -0.3773002783
 C         -2.5504567788        0.3975017293       -1.4387797421
 C         -1.8840902145       -0.7167531650       -2.2558986986
 N         -1.0007824800       -1.5263959000       -1.4620855004
 C         -1.2870700783       -2.7467985516       -0.8995147404
 C         -2.4348556009       -3.5239147161       -0.9896032957
 C         -2.4544646294       -4.7339790885       -0.3245851310
 C         -1.3618822602       -5.1747957337        0.4194790708
 C         -0.2163968005       -4.4111668396        0.5142124425
 C         -0.1717721716       -3.1905528408       -0.1465452110
 C          0.8279463792       -2.1686417229       -0.2652727206
 C          2.1145021794       -2.0311721334        0.2328307091
 C          2.8398444170       -0.8894876687       -0.0850242433
 N          4.1336897880       -0.7897567506        0.4325683392
 C          5.0750805409        0.1593662239        0.2959307095
 N          6.2239262267       -0.1091489106        0.9434893371
 C          7.1637530487        0.8077881609        0.8228398987
 O          8.3308070499        0.6312711640        1.4243637831
 C          8.4773103827       -0.5641823896        2.1682452355
 N          7.0534877039        1.9378592220        0.1291132366
 C          5.8818465983        2.1036945589       -0.4682522928
 O          5.6727671398        3.1971156983       -1.1832767620
 C          6.7492276550        4.1164391372       -1.2501478392
 N          4.8627483013        1.2579266504       -0.4219339991
 C          2.2784317446        0.1059687817       -0.8939402322
 C          0.9986330283       -0.0191206251       -1.3944494382
 C          0.2685461988       -1.1580708022       -1.0824508337
 H         -7.4925161040        0.7278522914        0.9436252362
 H         -8.3869304733        1.4371787202        2.2825000317
 H         -8.3496261754        2.2549017955        0.7197247257
 H         -5.9189094992        1.8121478116        2.5184384514
 H         -6.8363988324        3.3096882232        2.4367673679
 H         -4.8485735143        3.5288659702        1.0822221837
 H         -6.2873322615        3.5865197385        0.0652935552
 H         -4.5900132138        2.3148564568       -1.0448338703
 H         -5.9001039340        1.2216712652       -0.6142428899
 H         -4.6027947749        0.4338715108        1.3535118508
 H         -3.2911373657        1.5361643312        0.9380318873
 H         -2.9486997436       -0.8621682608        0.2489792728
 H         -4.3084963553       -0.7047213697       -0.8642200025
 H         -1.7745476755        0.9926112555       -0.9528947143
 H         -3.0939677984        1.0445805106       -2.1284597667
 H         -1.3055391644       -0.2742152729       -3.0736987535
 H         -2.6482551124       -1.3637190816       -2.6928720017
 H         -3.2935678751       -3.1999852359       -1.5579961838
 H         -3.3378625528       -5.3530503482       -0.3814901765
 H         -1.4176387623       -6.1269246217        0.9258681684
 H          0.6314558447       -4.7521490281        1.0893185547
 H          2.5451583897       -2.8019832791        0.8557353023
 H          4.4383240088       -1.5666384574        1.0049777684
 H          7.7351069925       -0.6142600138        2.9676788663
 H          9.4824509834       -0.5333530113        2.5829821633
 H          8.3565481841       -1.4368835419        1.5230127543
 H          7.6291248437        3.6470131215       -1.6937581971
 H          7.0124214094        4.4741258386       -0.2530685437
 H          6.3977070356        4.9370870322       -1.8718027447
 H          2.8707020265        0.9759802638       -1.1189638876
 H          0.5878806980        0.7605396294       -2.0172336339
