  61
 
 C          3.9273276209       -2.5538038311        0.3941308333
 C          3.1727583189       -1.2945142054        0.6742210207
 C          1.8210499747       -1.2881208095        0.8004727694
 C          1.0947098203       -0.0749188988        1.0568637677
 N         -0.2492540323       -0.0921081525        1.2535685103
 C         -1.0355650723        1.0497248957        1.4329891670
 C         -0.7396104028        2.0223762114        2.3957119024
 C         -1.5801346561        3.1001954481        2.5565381119
 C         -2.7205816750        3.2277401324        1.7670899060
 C         -3.0344090399        2.2459678891        0.8314810429
 C         -2.2195052860        1.1481154716        0.6673785938
 C         -2.4314852792        0.0220625017       -0.3285019444
 C         -1.3080823365        0.0992896837       -1.3647939337
 C         -0.7774771025       -1.0594309517       -1.9186539985
 C          0.2928856936       -0.9952217781       -2.7922041537
 C          0.8444660316        0.2282632238       -3.1299525607
 C          0.3013409509        1.3889906867       -2.6076059160
 C         -0.7692278584        1.3256432588       -1.7341566781
 C         -3.8039101594        0.0674642585       -0.9607326636
 C         -3.9819478210        0.1720695954       -2.3325612188
 C         -5.2560262777        0.2112974880       -2.8747055829
 C         -6.3673407356        0.1466467197       -2.0540327392
 C         -6.1990953789        0.0422894095       -0.6828786301
 C         -4.9283198217        0.0031305011       -0.1411526061
 C         -2.2155722425       -1.2385362868        0.4895846158
 C         -3.0261991900       -2.3516652540        0.4886522670
 C         -2.7072873979       -3.4610196208        1.2667853730
 C         -1.5656120921       -3.4487973234        2.0646880611
 C         -0.7292652436       -2.3558907048        2.0658352046
 C         -1.0308399605       -1.2510005617        1.2602412239
 C          1.8181162712        1.1650408122        0.9911188887
 C          3.1698506684        1.1940413230        0.8682810440
 C          3.9215108124        2.4833039612        0.7878515748
 C          3.8752844535       -0.0506755455        0.7874832126
 Br         5.7533906163       -0.0353500024        0.6192813069
 H          4.6532296919       -2.7487242943        1.1841321918
 H          4.4770285661       -2.4698885862       -0.5438899569
 H          3.2479873732       -3.3994198808        0.3266240755
 H          1.2693431469       -2.2041115690        0.6649234228
 H          0.1294724614        1.8982763064        3.0244187986
 H         -1.3542121755        3.8491355828        3.3005386141
 H         -3.3672007172        4.0829963216        1.8838146289
 H         -3.9194525780        2.3541172551        0.2223079393
 H         -1.1999462963       -2.0194893212       -1.6588810510
 H          0.7007816604       -1.9061592893       -3.2052913461
 H          1.6894089643        0.2771771475       -3.8005706504
 H          0.7160023380        2.3497318924       -2.8756595177
 H         -1.1851319280        2.2373469760       -1.3298272146
 H         -3.1236520298        0.2236266596       -2.9859002093
 H         -5.3773924054        0.2929487505       -3.9450152906
 H         -7.3599068180        0.1773684726       -2.4785998805
 H         -7.0608506012       -0.0086882025       -0.0333582899
 H         -4.8009294460       -0.0780789086        0.9292087356
 H         -3.9117774231       -2.3710473731       -0.1289986548
 H         -3.3507128332       -4.3265168732        1.2552333028
 H         -1.3354669848       -4.2998935408        2.6877174044
 H          0.1409106527       -2.3240558942        2.7044041342
 H          1.2644334267        2.0897651870        0.9989395539
 H          4.4717630088        2.5475816392       -0.1513906694
 H          4.6466636734        2.5546398862        1.5990860492
 H          3.2402098696        3.3275910080        0.8522345678
