  64
 
 C          8.4963328779        0.0000619427        0.0034917887
 C          7.8028576291       -0.2109659307       -1.1765112007
 C          6.4196901939       -0.2085231344       -1.1796290505
 C          5.7133431293        0.0011242713        0.0005674079
 C          4.2345715968        0.0006789460       -0.0005544205
 C          3.5377124518       -1.0622388823        0.5909974064
 C          4.2141211218       -2.1665375158        1.1732241147
 C          3.5276153022       -3.1987005075        1.7342631624
 C          2.1183996002       -3.1973979562        1.7371277796
 C          1.4316916824       -2.1645804552        1.1776966527
 C          2.1080811783       -1.0620255111        0.5921380425
 C          1.4114250466       -0.0003904985       -0.0013182513
 C         -0.0670573183       -0.0006808208       -0.0009656065
 C         -0.7747564667       -0.2265597847       -1.1777222568
 C         -2.1557918185       -0.2248346718       -1.1815535942
 C         -2.8565913188       -0.0009406191        0.0001306725
 N         -4.2582847650       -0.0006967190        0.0006314262
 C         -5.0653796454        0.9880767851        0.5265076766
 C         -4.7149495563        2.1946054834        1.1154059495
 C         -5.7343844620        3.0260017183        1.5376976328
 C         -7.0732082388        2.6767215520        1.3745097326
 C         -7.4280372608        1.4881109581        0.7688328534
 C         -6.4212656866        0.6354247169        0.3355673364
 C         -6.4218709618       -0.6345764320       -0.3346166308
 C         -7.4294587071       -1.4862136196       -0.7680438052
 C         -7.0757653694       -2.6752079637       -1.3736301519
 C         -5.7372785960       -3.0259039044       -1.5365533370
 C         -4.7170452419       -2.1955453265       -1.1141440662
 C         -5.0663181284       -0.9886171903       -0.5253744152
 C         -2.1549168302        0.2229145498        1.1813054854
 C         -0.7738974252        0.2249068921        1.1763780979
 C          2.1075971454        1.0615312942       -0.5948178191
 C          1.4307110102        2.1633681309       -1.1811637233
 C          2.1169573845        3.1963928378       -1.7407733749
 C          3.5261783127        3.1987180998       -1.7372201651
 C          4.2131586104        2.1673802917       -1.1752357507
 C          3.5372534930        1.0628275757       -0.5928936398
 C          6.4174164412        0.2105120060        1.1821992161
 C          7.8005636446        0.2118839844        1.1820034191
 H          9.5763709359       -0.0004805941        0.0046633051
 H          8.3414933816       -0.3776652391       -2.0980895377
 H          5.8759657711       -0.3754440823       -2.0986741132
 H          5.2938574796       -2.1760704421        1.1563051849
 H          4.0567998707       -4.0316243939        2.1735154128
 H          1.5892985352       -4.0289789221        2.1791188722
 H          0.3517436390       -2.1723856534        1.1651772965
 H         -0.2327689114       -0.4017846982       -2.0958036779
 H         -2.6993345547       -0.3831226408       -2.1011012205
 H         -3.6805654197        2.4818515767        1.2311773231
 H         -5.4876228672        3.9697045118        2.0016732744
 H         -7.8406492573        3.3531009045        1.7205432605
 H         -8.4654749260        1.2242755042        0.6284101241
 H         -8.4666440371       -1.2212765457       -0.6278301709
 H         -7.8438559071       -3.3507826701       -1.7197966427
 H         -5.4914349883       -3.9699001265       -2.0004195339
 H         -3.6829353268       -2.4838599472       -1.2297223268
 H         -2.6977658563        0.3810111829        2.1012937890
 H         -0.2312072096        0.4001508768        2.0940402021
 H          0.3507493392        2.1703549390       -1.1692879277
 H          1.5874679510        4.0272854676       -2.1836025375
 H          4.0549437217        4.0318221319       -2.1766394559
 H          5.2928823509        2.1776902553       -1.1576999823
 H          5.8718874348        0.3778057751        2.1000987063
 H          8.3373777959        0.3782162375        2.1046967823
