  171
 
 C        -11.3640792540       -6.9241402035        0.4131311419
 C         -9.9033383546       -6.6522285208        0.7863235217
 C         -9.0163862706       -7.5828175953       -0.0546481348
 C         -9.7265495155       -6.9742328409        2.2777755509
 C         -9.4925419006       -5.2084092093        0.5296681249
 C         -8.1823244612       -4.8122923911        0.8318991549
 C         -7.7174662640       -3.5297240053        0.6212833988
 C         -8.5914967490       -2.6005431453        0.0782968972
 C         -9.9234835051       -2.9650573571       -0.2091867485
 C        -10.3642328247       -4.2634914307        0.0132665161
 C        -10.5749332635       -1.7803101416       -0.6979291769
 C        -11.8639918958       -1.5266321530       -1.1498572882
 C        -12.2029183000       -0.2572458007       -1.5892489012
 C        -13.5970617190        0.0953729415       -2.0903096278
 C        -13.5054077077        0.5666956427       -3.5495226228
 C        -14.5608950846       -1.0940987209       -2.0354854676
 C        -14.1774307768        1.2179406644       -1.2169064684
 C        -11.2153793000        0.7374217955       -1.5805235470
 C         -9.9271472142        0.5134427269       -1.1384525955
 C         -9.6082607696       -0.7536540171       -0.6746510270
 N         -8.4089058800       -1.2592597952       -0.2056058880
 C         -7.2236649094       -0.5344719505       -0.0481309191
 C         -7.2375737710        0.6933608768        0.6107622125
 C         -6.0730205998        1.4226266414        0.7436056385
 C         -4.8746597972        0.9323971387        0.2369307573
 N         -3.6943038630        1.7086754787        0.3875345087
 C         -3.1260588707        2.3412112631       -0.7108030127
 C         -3.5827428075        2.0852218316       -2.0052911262
 C         -2.9900402571        2.6894481319       -3.0964662212
 C         -1.9305918265        3.5622161579       -2.9217785554
 C         -1.4983523331        3.8513571056       -1.6396605719
 C         -2.0857773203        3.2610551594       -0.5323448012
 C         -1.6901508296        3.7034765026        0.8576209352
 C         -2.4111174751        5.0030258088        1.1843626384
 C         -3.7664872615        5.2411489999        1.2421560448
 C         -4.2042485270        6.5193559955        1.5631031412
 C         -3.2966178101        7.5360875349        1.8188478062
 C         -1.9320430648        7.3021797745        1.7568373354
 C         -1.4908929337        6.0285373712        1.4365305782
 C         -0.1467895889        5.4916635026        1.2909315770
 C          1.0849765866        6.1111551109        1.4333255220
 C          2.2147805324        5.3348648021        1.2278204867
 C          2.1128822617        3.9749039674        0.8886301872
 C          0.8838972480        3.3580099201        0.7438987168
 C         -0.2435524763        4.1318790575        0.9488387224
 C          3.4836407196        3.3600644261        0.7209365432
 C          4.3866819002        4.5491081924        1.0176932411
 C          5.7630100653        4.5993127395        1.0318212194
 C          6.3812736028        5.8062324360        1.3317417769
 C          5.6298940454        6.9371754765        1.6131654702
 C          4.2448654948        6.8895512171        1.6050619717
 C          3.6237141868        5.6878906164        1.3058963623
 C          3.7339620793        2.8808791881       -0.6883198842
 C          3.1434588589        3.5245794088       -1.7645990949
 C          3.4156034000        3.1413187842       -3.0654945998
 C          4.2889700765        2.0921498083       -3.2951990601
 C          4.8803901491        1.4351175885       -2.2346145361
 C          4.6224602941        1.8274798855       -0.9193373824
 N          5.2056568992        1.1413856136        0.1427691827
 C          6.3050499188        0.2953186510       -0.1287345127
 C          7.5038934556        0.8670482596       -0.5536336100
 C          8.6003382961        0.0734924638       -0.8123914863
 C          8.5211595271       -1.3098160871       -0.6498799830
 C          9.6924190034       -2.1457314136       -0.9062541375
 N          9.6205924030       -3.4381516092       -0.5983511908
 C         10.7114960036       -4.1552689758       -0.8509887994
 C         10.6954724177       -5.5805416026       -0.5235022357
 C         11.8136584186       -6.3712323762       -0.7870779930
 C         11.7985421240       -7.7174210607       -0.4764668181
 C         10.6724325758       -8.2857051636        0.0998221301
 C          9.5581392801       -7.5041433894        0.3656811629
 C          9.5664932229       -6.1574343645        0.0571442330
 N         11.8255347048       -3.6518496687       -1.3828630975
 C         11.8132406964       -2.3542553117       -1.6462254833
 C         13.0273663303       -1.7273520019       -2.2720340240
 C         13.3438473111       -0.3781609961       -1.6158941332
 C         13.8569682323       -0.5754897845       -0.1925480741
 C         15.0974610070       -1.4636146411       -0.1900186909
 C         14.7795863281       -2.8173254193       -0.8176363843
 C         14.2511304968       -2.6439358351       -2.2392801491
 N         10.7696690823       -1.5630777055       -1.4286031959
 C          7.3150914074       -1.8826525283       -0.2474893964
 C          6.2144815537       -1.0893426556        0.0051188441
 C          4.6856349018        1.2536959029        1.4304244273
 C          5.0800547920        0.3888057916        2.4528847618
 C          4.5258814963        0.4837186076        3.7145450918
 C          3.5712610335        1.4470030691        3.9880744527
 C          3.2165788699        2.3436894743        2.9965477445
 C          3.7681640196        2.2691717609        1.7271935333
 C         -2.0490039179        2.6585267261        1.8880557715
 C         -1.4244521212        2.6507478339        3.1249719676
 C         -1.7952960527        1.7525015680        4.1099851550
 C         -2.8115064600        0.8478768542        3.8553419134
 C         -3.4407571480        0.8368602475        2.6264565738
 C         -3.0723891506        1.7417029458        1.6284983816
 C         -4.8534905443       -0.3054503458       -0.3973323345
 C         -6.0204901341       -1.0291530453       -0.5482857239
 H        -11.5396056660       -6.7371327526       -0.6439858629
 H        -12.0398863748       -6.3083624760        1.0024907584
 H        -11.6007287681       -7.9675367022        0.6130413652
 H         -7.9684446004       -7.4824613769        0.2146391067
 H         -9.3095216313       -8.6195672304        0.0983657676
 H         -9.1206921975       -7.3467339337       -1.1120857338
 H        -10.0396585372       -7.9967452415        2.4793818508
 H         -8.6903725310       -6.8696845717        2.5874489102
 H        -10.3325040690       -6.3018974254        2.8823550003
 H         -7.4958578253       -5.5321298082        1.2514466000
 H         -6.7050446526       -3.2638272904        0.8865938112
 H        -11.3874095955       -4.5068993561       -0.2195734134
 H        -12.5774338648       -2.3337112607       -1.1521736329
 H        -14.4977923470        0.7977461468       -3.9316362865
 H        -13.0692388422       -0.2140385978       -4.1700092734
 H        -12.8902375238        1.4576207536       -3.6417782872
 H        -14.6786204845       -1.4557182744       -1.0163553051
 H        -15.5396212376       -0.7842126837       -2.3970254269
 H        -14.2134080528       -1.9092083895       -2.6664070071
 H        -14.2249345482        0.8990269608       -0.1772624316
 H        -15.1835743494        1.4680348522       -1.5476007266
 H        -13.5695899766        2.1170894731       -1.2694927024
 H        -11.4584670473        1.7270329636       -1.9368208874
 H         -9.1931180223        1.3049325144       -1.1674339129
 H         -8.1623588037        1.0663228676        1.0236662242
 H         -6.0835626290        2.3725172001        1.2573054318
 H         -4.4125253742        1.4129605521       -2.1583637095
 H         -3.3610481548        2.4741302989       -4.0878694074
 H         -1.4587787818        4.0313771888       -3.7717261836
 H         -0.6986729680        4.5620110280       -1.4906287032
 H         -4.4761044589        4.4533483180        1.0374010604
 H         -5.2639395252        6.7243080198        1.6126493422
 H         -3.6589759348        8.5233677135        2.0671555398
 H         -1.2292467217        8.0984371018        1.9532352215
 H          1.1613505270        7.1555610902        1.6941997244
 H          0.8072812220        2.3126774143        0.4812743055
 H          6.3527626071        3.7195931216        0.8208496943
 H          7.4600251725        5.8634131285        1.3470973887
 H          6.1314659614        7.8660635208        1.8439311012
 H          3.6639137298        7.7720953856        1.8286603272
 H          2.4674139795        4.3454076945       -1.5765693089
 H          2.9502918500        3.6584564501       -3.8906575957
 H          4.5083568851        1.7760732771       -4.3043631934
 H          5.5471755028        0.6074299261       -2.4241030753
 H          7.5634866374        1.9378939436       -0.6812769663
 H          9.5347460777        0.5067711480       -1.1323221482
 H         12.6811423777       -5.9112995760       -1.2344574678
 H         12.6664486295       -8.3260318522       -0.6827658364
 H         10.6631135837       -9.3381082235        0.3420475494
 H          8.6817728269       -7.9470245311        0.8152698287
 H          8.7094239295       -5.5339937641        0.2589234893
 H         12.7487883868       -1.5413181816       -3.3190243877
 H         14.1064050176        0.1306002741       -2.2089897092
 H         12.4434332114        0.2370536705       -1.6091266641
 H         14.0887189293        0.3950301169        0.2517524284
 H         13.0738692923       -1.0408103940        0.4134457493
 H         15.4538500329       -1.6024613415        0.8329744023
 H         15.8915151912       -0.9752125752       -0.7598862013
 H         14.0260599447       -3.3306414804       -0.2164459468
 H         15.6759901248       -3.4407755633       -0.8354014636
 H         13.9870218711       -3.6162721616       -2.6570800189
 H         15.0307158957       -2.2015244776       -2.8633472108
 H          7.2561223470       -2.9551318489       -0.1477299401
 H          5.2746416068       -1.5370550886        0.2922357975
 H          5.8368297544       -0.3567209852        2.2675215201
 H          4.8472510643       -0.2004825042        4.4860136480
 H          3.1274416075        1.5191282519        4.9692127536
 H          2.5108176689        3.1320007976        3.2129496688
 H         -0.6420526449        3.3692053035        3.3209650350
 H         -1.2990502633        1.7649779764        5.0684991931
 H         -3.1157019084        0.1420780169        4.6143881191
 H         -4.2252210931        0.1208690765        2.4333729032
 H         -3.9201351119       -0.6928389364       -0.7786924241
 H         -6.0079587790       -1.9764938639       -1.0656534811
