  111
 
 C         -9.0069319377        1.3652166082       -3.0866351949
 C         -8.4489332233       -0.0612389840       -3.0685426666
 C         -9.5422512727       -0.9952647216       -2.5267347630
 C         -8.0965046035       -0.4555694232       -4.5112980835
 C         -7.2090216626       -0.1952492935       -2.1994738709
 C         -6.5906399020       -1.4484636745       -2.0859547822
 C         -5.4666619713       -1.6630733899       -1.3139956931
 C         -4.9423934781       -0.5844112312       -0.6122321125
 C         -5.5292383450        0.6964998946       -0.7337749768
 C         -6.6542871446        0.8847129537       -1.5177383772
 C         -4.7206258008        1.5885328905        0.0605161106
 C         -4.7990506121        2.9426995966        0.3378023774
 C         -3.8591161150        3.5301622667        1.1802343813
 C         -3.8804782473        5.0115482107        1.5204803585
 C         -4.0821323601        5.1734957239        3.0352587108
 C         -2.5423073040        5.6420213601        1.1046104307
 C         -5.0051269171        5.7661635252        0.8051258512
 C         -2.8656270395        2.7178619723        1.7448505271
 C         -2.7643958199        1.3661080877        1.4846928296
 C         -3.6883165346        0.7982484236        0.6160639111
 N         -3.8344491176       -0.5086063383        0.2024771012
 C         -3.0009520603       -1.5744175995        0.5611043073
 C         -3.5929991557       -2.7791038385        1.0277605615
 C         -2.7742062619       -3.8307255405        1.4108100867
 C         -1.4126743045       -3.6913960128        1.3347952849
 C         -0.7889731919       -2.4858306974        0.8775057177
 C         -1.6336204052       -1.4307916010        0.4840516629
 C          0.6204929885       -2.5207563680        0.8933757141
 C          1.5248912236       -1.5099534026        0.5172074513
 C          2.8814483560       -1.7205514452        0.6255981760
 N          3.7751625323       -0.6987186322        0.2851420674
 C          3.6816094713        0.6168347761        0.6880660915
 C          2.7633463689        1.2357086724        1.5243613345
 C          2.9176029272        2.5866259891        1.7811058679
 C          3.9635644289        3.3418038074        1.2428352613
 C          4.1251496665        4.8280446853        1.5188284439
 C          4.1131767598        5.5884191370        0.1832639615
 C          5.4647049079        5.0584941385        2.2356936287
 C          3.0076777586        5.3963520361        2.3984171509
 C          4.9010747762        2.6989117539        0.4321277659
 C          4.7684497028        1.3516797505        0.1574829387
 C          5.5537540295        0.4151905103       -0.6089327350
 C          6.7070820706        0.5428657230       -1.3630994887
 C          7.2254685124       -0.5671422003       -2.0247108767
 C          8.4924817048       -0.4999529584       -2.8616879152
 C          8.1568227207       -0.8810450727       -4.3120051236
 C          9.5227801623       -1.4865324504       -2.2902825384
 C          9.1229868362        0.8960667814       -2.8687969555
 C          6.5421189907       -1.7873739242       -1.9225325426
 C          5.3884922494       -1.9413796368       -1.1808069108
 C          4.9000959170       -0.8340016243       -0.4976713175
 C          3.4022742951       -2.9517646451        1.1084538487
 C          2.5240748654       -3.9611018021        1.4730468644
 C          1.1731836561       -3.7550836312        1.3654437761
 S         -0.1525531119       -4.8626227649        1.7596054326
 O         -0.1704107576       -6.0268470285        0.8799145408
 O         -0.1773854158       -5.1960903142        3.1799259495
 H         -9.2925024523        1.6870684255       -2.0878086014
 H         -9.8949362551        1.3966486897       -3.7146231064
 H         -8.2823935484        2.0646379881       -3.4971595230
 H        -10.4449209417       -0.8986508520       -3.1261554457
 H         -9.2277288743       -2.0347870078       -2.5525370643
 H         -9.7823864698       -0.7370884154       -1.4971396519
 H         -8.9678700012       -0.3391451593       -5.1521407543
 H         -7.2999834218        0.1807454747       -4.8920057043
 H         -7.7659898073       -1.4885851592       -4.5728336429
 H         -6.9971528795       -2.2896244026       -2.6252562155
 H         -5.0046960680       -2.6372506441       -1.2675664949
 H         -7.0800715902        1.8709401512       -1.5893470526
 H         -5.5950710897        3.5184170130       -0.1025396197
 H         -4.1193783699        6.2292971565        3.2948101085
 H         -5.0172341255        4.7094687102        3.3428531170
 H         -3.2736242081        4.7134247438        3.5963845037
 H         -2.3772470985        5.5056862653        0.0376680754
 H         -2.5515281012        6.7084029827        1.3192197517
 H         -1.7092170788        5.1955430807        1.6394656949
 H         -4.9613808331        6.8192878875        1.0753111376
 H         -4.9010019425        5.6928781539       -0.2750456971
 H         -5.9813003454        5.3872615892        1.0988198494
 H         -2.1459973176        3.1545887608        2.4192444039
 H         -1.9988297750        0.7680496685        1.9543747580
 H         -4.6633957660       -2.8457316185        1.1281775221
 H         -3.1966691631       -4.7561790218        1.7745935578
 H         -1.2091196570       -0.5178100468        0.0963438854
 H          1.1545284720       -0.5790055282        0.1170218365
 H          1.9565805765        0.6792575226        1.9759242009
 H          2.1957850177        3.0547502630        2.4286739242
 H          4.2051129445        6.6572416087        0.3636517852
 H          3.1793100022        5.4064402505       -0.3448078366
 H          4.9338522108        5.2814888274       -0.4586480126
 H          5.5897460629        6.1157257195        2.4594948003
 H          5.4922393892        4.5022576925        3.1707120512
 H          6.3038436236        4.7388174788        1.6243385994
 H          3.1724439366        6.4616682093        2.5465894102
 H          2.0362834001        5.2699998247        1.9262267647
 H          2.9969961042        4.9215690638        3.3768642705
 H          5.7362774176        3.2400182154        0.0171356646
 H          7.1830057397        1.5063774724       -1.4277234373
 H          9.0490605118       -0.8119483512       -4.9304850772
 H          7.4040899780       -0.2060607374       -4.7146135800
 H          7.7752747656       -1.8959344503       -4.3795928999
 H          9.7516923308       -1.2358960849       -1.2562762708
 H          9.1556221026       -2.5085401474       -2.3195636567
 H         10.4431055121       -1.4397898974       -2.8685065974
 H          8.4468967873        1.6297071867       -3.3016745168
 H         10.0284296655        0.8794095709       -3.4719606892
 H          9.3968447222        1.2074111181       -1.8633435456
 H          6.9202280807       -2.6506919679       -2.4472774855
 H          4.8769161226       -2.8908195224       -1.1439807515
 H          4.4653309077       -3.0702649328        1.2355062543
 H          2.8919227239       -4.9053679565        1.8477047459
