  128
 
 O          8.4816446579       -2.0069934438        2.8794580899
 P          7.4942599798       -1.6305723353        1.8582490967
 C          7.2637984948       -2.9645719981        0.6346244326
 C          6.1851782553       -3.8325227634        0.6952889575
 C          6.1440745571       -4.9379065309       -0.1375177451
 C          7.1790394908       -5.1767157853       -1.0266294676
 C          8.2588311347       -4.3097633787       -1.0856807145
 C          8.3044123515       -3.2087944202       -0.2511113493
 C          7.9990053005       -0.1518105307        0.9270253048
 C          8.7715540884        0.7729767090        1.6173735503
 C          9.2568554421        1.8923606466        0.9668434115
 C          8.9794325075        2.0799981982       -0.3780277439
 C          8.2074220208        1.1574193385       -1.0649803974
 C          7.7086220345        0.0425153996       -0.4151316505
 C          5.8584725338       -1.3312471977        2.5897197668
 C          5.7002585126       -1.7335676851        3.9168924944
 C          4.4860734516       -1.6197371517        4.5801070744
 C          3.3752409511       -1.1030043614        3.9419434437
 C          3.5096490219       -0.6819672481        2.6198293617
 C          4.7499579942       -0.7917854108        1.9576699654
 O          4.6763419925       -0.3133477160        0.6840498879
 C          3.3934018318        0.1061189036        0.5042316574
 C          2.8392653615        0.6722227591       -0.6351561505
 P          3.7004189683        1.1162093768       -2.1705908570
 O          2.7749198805        1.3831558441       -3.2800600695
 C          4.8496251049       -0.2388344302       -2.5694022669
 C          5.9124169298        0.0500735856       -3.4132970459
 C          6.7538078429       -0.9626029471       -3.8370774659
 C          6.5196105056       -2.2667158507       -3.4306828384
 C          5.4384979559       -2.5592584015       -2.6158299365
 C          4.6012198160       -1.5461538588       -2.1831663415
 C          4.7142162774        2.5675618737       -1.7449428826
 C          5.4711720679        2.6507248972       -0.5841970054
 C          6.1820660997        3.8049386076       -0.3118229759
 C          6.1471102189        4.8710214893       -1.1968481906
 C          5.3922074977        4.7889143921       -2.3559528233
 C          4.6705841500        3.6404501055       -2.6256648192
 C          1.4869472799        1.0004617787       -0.5900650648
 C          0.6937088394        0.7849558956        0.5396459489
 C         -0.7317356331        1.1339185075        0.5121788370
 C         -1.1778994700        2.2788436035       -0.1465471557
 C         -2.5204546784        2.5981629263       -0.1810540308
 C         -3.4603178239        1.7763152783        0.4290743678
 C         -4.9272018340        2.1396078939        0.4366416734
 C         -5.8321519867        0.9434484347        0.3049007224
 C         -7.0865454572        0.9083940085        0.9315458827
 C         -7.9432125214       -0.1446065835        0.7438918861
 C         -7.5748002629       -1.2281429250       -0.0810329182
 N         -8.4215611865       -2.3007805625       -0.2566792325
 C         -9.7896840561       -2.2252117725       -0.4645326346
 C        -10.5919837858       -1.1118935796       -0.6326156475
 C        -11.9528416640       -1.3150357450       -0.8657061145
 C        -12.4782415438       -2.6035636162       -0.9394663602
 C        -11.6757658382       -3.7262375122       -0.8111608991
 C        -10.3096137509       -3.5496295601       -0.5871772120
 C         -9.2073298727       -4.4400881368       -0.4572254394
 C         -9.0779299480       -5.8295781463       -0.4764263453
 C         -7.8258769261       -6.3832102126       -0.2603749539
 C         -6.7073619501       -5.5902679953       -0.0121654167
 C         -6.8089635103       -4.1984950175        0.0027228783
 C         -8.0463134655       -3.6352981596       -0.2483773382
 C         -6.3190947952       -1.1889223963       -0.7236912254
 C         -5.4818902060       -0.1209553434       -0.5422239468
 C         -5.2149785655        2.9801355115        1.6679420514
 C         -5.0092409229        2.6598830242        2.9908225190
 C         -5.3422897871        3.5966765263        3.9623095012
 C         -5.8661889888        4.8317659415        3.6073677213
 C         -6.0687077414        5.1622238997        2.2787072707
 C         -5.7404910951        4.2309482778        1.3031744572
 C         -5.8371395889        4.2907654645       -0.1400642013
 C         -6.3002881801        5.2916911193       -0.9823792388
 C         -6.2623299048        5.0816749939       -2.3488945199
 C         -5.7726092406        3.8911092979       -2.8736404425
 C         -5.3167135308        2.8809943663       -2.0385939866
 C         -5.3426120177        3.0877609943       -0.6759864816
 C         -3.0182299107        0.6409707754        1.1014345423
 C         -1.6761423314        0.3243582687        1.1419198522
 C          1.2658719190        0.2336048873        1.6823562222
 C          2.6152037826       -0.1058850032        1.6607721802
 H          5.3847673235       -3.6465197668        1.3986407318
 H          5.3059540360       -5.6186422721       -0.0875474342
 H          7.1466471993       -6.0431990650       -1.6714096833
 H          9.0694365659       -4.5007827196       -1.7739386618
 H          9.1492291060       -2.5329601072       -0.2692769882
 H          8.9972271125        0.5867677394        2.6580443296
 H          9.8591394149        2.6121000379        1.5023390785
 H          9.3666141054        2.9465559358       -0.8941126277
 H          7.9951080786        1.3054242525       -2.1130468963
 H          7.1033832274       -0.6775915872       -0.9449033187
 H          6.5649862054       -2.1436043130        4.4167893749
 H          4.4117479626       -1.9459593334        5.6067503474
 H          2.4251949416       -1.0184447115        4.4461378976
 H          6.0636273916        1.0731963405       -3.7333355903
 H          7.5881858315       -0.7396359073       -4.4863597044
 H          7.1745777731       -3.0605934973       -3.7578238287
 H          5.2489658357       -3.5794916867       -2.3180726284
 H          3.7510538828       -1.7682602425       -1.5532459910
 H          5.5110844137        1.8166526138        0.0978266145
 H          6.7675460868        3.8711930904        0.5935570957
 H          6.7064992361        5.7694457629       -0.9797978640
 H          5.3632408052        5.6211571266       -3.0443177153
 H          4.0606878450        3.5552321392       -3.5139433028
 H          1.0510426167        1.4052222011       -1.4914932811
 H         -0.4617797307        2.9332547189       -0.6201297487
 H         -2.8448900251        3.4937403055       -0.6904995815
 H         -7.3710961051        1.7157755185        1.5894089086
 H         -8.8787220201       -0.1888854418        1.2802964792
 H        -10.1857928153       -0.1124604731       -0.6103878609
 H        -12.5998943328       -0.4629396287       -0.9980549415
 H        -13.5365747319       -2.7276322983       -1.1165286329
 H        -12.0926165331       -4.7179820675       -0.8891042721
 H         -9.9390193593       -6.4557370138       -0.6491470572
 H         -7.7139483353       -7.4575276189       -0.2696417312
 H         -5.7525189438       -6.0531838487        0.1782344957
 H         -5.9451477296       -3.5919264116        0.2264516225
 H         -6.0563779792       -1.9793872391       -1.4100447007
 H         -4.5338264879       -0.0936659159       -1.0587058356
 H         -4.5981023321        1.7020091488        3.2731759429
 H         -5.1894783816        3.3604636944        5.0048749328
 H         -6.1164730280        5.5444034324        4.3796966976
 H         -6.4732601068        6.1253103670        2.0056602333
 H         -6.6827586740        6.2165764647       -0.5770211893
 H         -6.6174680830        5.8505947007       -3.0192396858
 H         -5.7465685267        3.7503688652       -3.9438622189
 H         -4.9400925035        1.9579725284       -2.4538264865
 H         -3.7352392789       -0.0060122114        1.5872607168
 H         -1.3560290659       -0.5750193188        1.6473545866
 H          0.6860861780        0.0887898508        2.5803068206
