  110
 
 C          9.7267644405       -2.7521161632        1.3946554219
 C          8.7967246352       -1.9006720853        2.2708706535
 C          9.5441170673       -0.6186299608        2.6482859473
 C          8.4650209500       -2.6570829941        3.5652250497
 C          7.5089189765       -1.6263358237        1.5093082272
 C          6.7267750684       -2.7102363119        1.0919415364
 C          5.5460919475       -2.5553076633        0.3855542393
 C          5.1378393689       -1.2688768650        0.0741265804
 C          5.8904999390       -0.1561839086        0.5150830841
 C          7.0713718374       -0.3398693887        1.2231295919
 C          5.1707086844        1.0139914848        0.0981359694
 C          5.4213703365        2.3747679202        0.2211861671
 C          4.5302420017        3.2903654291       -0.3229447954
 C          4.7366463686        4.7936418092       -0.2165722417
 C          5.9998105287        5.1623149311        0.5663751598
 C          3.5323610950        5.4164376358        0.5041843052
 C          4.8613625685        5.3857225989       -1.6278273784
 C          3.4069608586        2.8094985135       -1.0067401566
 C          3.1354879025        1.4591218551       -1.1474460244
 C          4.0118387359        0.5555180860       -0.5692047072
 N          4.0041489791       -0.8263529377       -0.5797121389
 C          3.0215714103       -1.6282818693       -1.1572336449
 C          3.4044598439       -2.7141186397       -1.9523115249
 C          2.4382903319       -3.5305649440       -2.5542241781
 C          1.1111670312       -3.2339136211       -2.3298063990
 N         -0.0156918697       -3.8615109851       -2.7930181202
 C         -1.1372230743       -3.2235535501       -2.3310989899
 C         -2.4667812755       -3.5077770179       -2.5572506161
 C         -3.4260542478       -2.6827849414       -1.9560021595
 C         -3.0341521059       -1.6012171360       -1.1594437443
 N         -4.0099990390       -0.7913808662       -0.5816879810
 C         -4.0047521116        0.5905112398       -0.5676958176
 C         -3.1191622324        1.4874126458       -1.1422748164
 C         -3.3778498925        2.8399354609       -0.9978519254
 C         -4.4972972454        3.3295130315       -0.3139667486
 C         -4.6890810271        4.8343701638       -0.2027235409
 C         -4.8058375161        5.4326024982       -1.6120585606
 C         -3.4797723096        5.4426896703        0.5219888973
 C         -5.9497053004        5.2127391204        0.5796972415
 C         -5.3980344683        2.4208700556        0.2259923057
 C         -5.1602406088        1.0581210537        0.0992028908
 C         -5.8917138817       -0.1062588597        0.5119147224
 C         -7.0755873525       -0.2805553002        1.2173436730
 C         -7.5256937923       -1.5635465668        1.4996389158
 C         -8.8175508880       -1.8276251180        2.2579553627
 C         -9.7529774343       -2.6700296256        1.3787337884
 C         -9.5547251205       -0.5395963542        2.6350928364
 C         -8.4952070057       -2.5883281575        3.5521569311
 C         -6.7527213133       -2.6537010952        1.0815068784
 C         -5.5693671949       -2.5081392566        0.3775488813
 C         -5.1487631711       -1.2248856295        0.0694887767
 C         -1.6869121512       -1.3081357023       -0.9256634078
 C         -0.7165722155       -2.1287452270       -1.5157373765
 C          0.6996719724       -2.1351457385       -1.5151013151
 C          1.6768784010       -1.3228418447       -0.9248583116
 H         10.6618542497       -2.9440125733        1.9169232828
 H          9.9501007766       -2.2295789853        0.4667438003
 H          9.2739386822       -3.7077916641        1.1463593205
 H          9.8179811475       -0.0504042603        1.7623234107
 H         10.4590288048       -0.8755104486        3.1787065721
 H          8.9421076055        0.0073291930        3.3028570593
 H          7.7869216478       -2.0689308939        4.1801570618
 H          7.9923367709       -3.6126791829        3.3567231078
 H          9.3739202495       -2.8433911994        4.1337193808
 H          7.0420330452       -3.7148413067        1.3277590194
 H          4.9598080366       -3.4155232154        0.1017620785
 H          7.6223938000        0.5286459722        1.5423353683
 H          6.3127592734        2.6910538435        0.7361489363
 H          5.9557804289        4.7782874726        1.5829345348
 H          6.0894538493        6.2455883099        0.6201651900
 H          6.8908209769        4.7765382628        0.0764698982
 H          2.6089176463        5.2411118865       -0.0403100074
 H          3.6700620300        6.4911896482        0.6037862168
 H          3.4276429592        4.9877872748        1.4987636703
 H          5.6981656255        4.9301208052       -2.1532572890
 H          5.0322217185        6.4587945685       -1.5702132094
 H          3.9606856915        5.2154630579       -2.2107852738
 H          2.7175454816        3.5088085848       -1.4537986735
 H          2.2721816462        1.1285780051       -1.7040090472
 H          4.4501720361       -2.8876480744       -2.1465082710
 H          2.7344162590       -4.3497798350       -3.1914897199
 H         -0.0191385378       -4.6810474417       -3.3780525994
 H         -2.7697280910       -4.3238997765       -3.1952762402
 H         -4.4730638725       -2.8464279605       -2.1517529648
 H         -2.2583657551        1.1503567302       -1.6988103955
 H         -2.6811411018        3.5339167693       -1.4418917578
 H         -3.9060192359        5.2555063728       -2.1943036707
 H         -4.9661603879        6.5071018502       -1.5508872390
 H         -5.6463265858        4.9871620181       -2.1403093567
 H         -3.3808543694        5.0096213106        1.5152489525
 H         -2.5572724494        5.2600555824       -0.0217038619
 H         -3.6069520729        6.5184078409        0.6250798811
 H         -5.9109490167        4.8247909397        1.5949831906
 H         -6.0287410087        6.2966499120        0.6371248177
 H         -6.8437617100        4.8374678057        0.0871855557
 H         -6.2870939447        2.7441250933        0.7406525245
 H         -7.6190661001        0.5923290061        1.5375625457
 H        -10.6910063314       -2.8540126677        1.8985724151
 H         -9.3081351653       -3.6295187367        1.1307305530
 H         -9.9693998306       -2.1447517048        0.4507310547
 H         -8.9491103748        0.0802087590        3.2921867733
 H         -9.8211579117        0.0321856135        1.7491477621
 H        -10.4732990457       -0.7891926885        3.1626513282
 H         -9.4069724067       -2.7678275088        4.1182454963
 H         -7.8137496995       -2.0065522718        4.1694400637
 H         -8.0298999181       -3.5475198552        3.3435440804
 H         -7.0775689373       -3.6558619168        1.3146820870
 H         -4.9905134442       -3.3731557232        0.0931146016
 H         -1.4070900457       -0.5081037884       -0.2601967179
 H          1.4037796731       -0.5194805508       -0.2605989629
