  54
 
 C         -5.6950324523        2.3399628073       -2.5068754660
 C         -4.6852794805        3.1095307042       -1.9492844088
 C         -3.6725695560        2.4798966725       -1.2496112837
 C         -3.7177719528        1.0916189497       -1.1229890167
 C         -2.6581588552        0.3808031593       -0.4010333346
 N         -1.4009532585        0.7450809796       -0.6127370984
 C         -0.3834464780        0.0751975269       -0.0800544316
 C          0.9481753721        0.4026385125       -0.2890199767
 C          1.9555500843       -0.4000625834        0.2665834445
 N          3.3154113873       -0.0871169537        0.0845195490
 C          4.1606834470       -0.9656702998       -0.5921969074
 C          3.6897152532       -2.1177684516       -1.2123033929
 C          4.5562136871       -2.9649996742       -1.8829356806
 C          5.9050649865       -2.6732438901       -1.9532308411
 C          6.3873022575       -1.5158121411       -1.3625890167
 C          5.5266508144       -0.6640275938       -0.6934776296
 O          6.0680407720        0.4757354286       -0.1593695475
 C          5.2263953017        1.3253893671        0.5091907343
 C          5.7877996766        2.4656931168        1.0553185594
 C          5.0015042125        3.3609890529        1.7635224741
 C          3.6551100338        3.1015595598        1.9327689769
 C          3.0863316709        1.9620787850        1.3875959665
 C          3.8556706281        1.0655466994        0.6543459265
 C          1.5790224188       -1.5129143120        1.0037405585
 N          0.3126769591       -1.8364701420        1.2073302281
 C         -0.6761235639       -1.1081293813        0.7289579917
 N         -1.9376753024       -1.4054016219        0.9767904311
 C         -2.9389728509       -0.6811309053        0.4746278907
 C         -4.2969408832       -0.9885932479        0.9084073132
 C         -4.6366533819       -2.2988656044        1.2571674628
 C         -5.9298542714       -2.5566240872        1.6676672627
 C         -6.8385936072       -1.5092421989        1.7281461964
 C         -6.3933604230       -0.2399971515        1.3872118474
 N         -5.1632808621        0.0174919354        0.9948170885
 N         -4.6724755333        0.3532823085       -1.6794244515
 C         -5.6301705811        0.9629209295       -2.3467674730
 H         -6.5054201060        2.7929178199       -3.0565751654
 H         -4.6879706447        4.1846811533       -2.0599344137
 H         -2.8630787535        3.0326416809       -0.8002574554
 H          1.1978012062        1.2516045713       -0.9044505140
 H          2.6370536204       -2.3493137330       -1.1730067506
 H          4.1656236928       -3.8545335232       -2.3520806200
 H          6.5830861522       -3.3332117839       -2.4705978887
 H          7.4313131047       -1.2511386366       -1.4121355846
 H          6.8444960055        2.6302657867        0.9183332730
 H          5.4468827048        4.2480928734        2.1850356299
 H          3.0350819393        3.7826826111        2.4946420743
 H          2.0371743792        1.7638205722        1.5383193338
 H          2.3130088476       -2.1657448527        1.4536058098
 H         -3.8889948988       -3.0730593165        1.1954157591
 H         -6.2289222809       -3.5594125578        1.9379179580
 H         -7.8588842980       -1.6697513420        2.0397755032
 H         -7.0525518698        0.6176104856        1.4376245074
 H         -6.3802440794        0.3127184326       -2.7789978458
