  66
 
 Br        -1.2578521664        2.7275517852       -0.5023129621
 C         -0.5691314281        0.9476032040       -0.3029630622
 C          0.7792116513        0.8104345861       -0.2906099568
 C          1.4218876410       -0.4577956340       -0.1496575803
 C          2.8086582441       -0.6157568428       -0.1296205610
 C          3.7600216729        0.3896453531       -0.2200525384
 C          5.1622388088        0.2061191429       -0.2009726479
 C          5.7962183359       -1.0546070300       -0.0978470374
 C          7.1628091323       -1.1655063476       -0.0854920056
 C          7.9723417983       -0.0259110959       -0.1685273486
 N          9.3604748513       -0.1540821539       -0.1654607984
 C         10.0796127431       -1.1257241802       -0.8141300659
 N         11.3623061948       -0.9994955350       -0.7069765318
 C         11.5560328389        0.1141533395        0.0771139627
 C         12.7343165221        0.6926716028        0.5323702298
 C         12.6305833558        1.8079440143        1.3392334510
 C         11.3893389078        2.3326619921        1.7016952509
 C         10.2060653600        1.7732910316        1.2586148239
 C         10.3007737226        0.6685846884        0.4255250905
 C          7.3688399803        1.2321895207       -0.2816007593
 C          6.0027003359        1.3414042405       -0.2974222635
 C          0.5154642158       -1.5624897323       -0.0291695049
 Br         1.2040340038       -3.3444094674        0.1559523809
 C         -0.8328699400       -1.4247984878       -0.0378672046
 C         -1.4755030778       -0.1560100614       -0.1734222384
 C         -2.8623963809        0.0022526337       -0.1866883434
 C         -3.8127740846       -0.9969239848       -0.0372109130
 C         -5.2151968491       -0.8162936871       -0.0699261444
 C         -5.8496204196        0.4224629857       -0.3231954029
 C         -7.2165009749        0.5333118961       -0.3414788011
 C         -8.0248771866       -0.5846832723       -0.1056418258
 N         -9.4147327107       -0.4796321302       -0.1311525394
 C        -10.2808575934       -1.3881119945       -0.6844493416
 N        -11.5259543185       -1.0438584745       -0.6201671515
 C        -11.5373583750        0.1672141397        0.0321940832
 C        -12.6061762848        0.9766307966        0.3964394592
 C        -12.3226116918        2.1450381489        1.0747714663
 C        -11.0129980851        2.4999446143        1.4011394845
 C         -9.9362082697        1.7091419757        1.0484743585
 C        -10.2094016836        0.5465538193        0.3435835866
 C         -7.4207153254       -1.8255195305        0.1324109474
 C         -6.0548892358       -1.9348745498        0.1505689770
 H          1.3993647945        1.6859675718       -0.3932179916
 H          3.1679910960       -1.6292859501       -0.0287162144
 H          3.4294311741        1.4145929560       -0.3099864930
 H          5.2033777038       -1.9516911827       -0.0205234181
 H          7.6249745790       -2.1369963933        0.0098441476
 H          9.6012400185       -1.8973688232       -1.3863572859
 H         13.6891454915        0.2690147385        0.2644618127
 H         13.5275518655        2.2817793709        1.7094337045
 H         11.3526937689        3.1966030715        2.3484581294
 H          9.2531366470        2.1768870484        1.5636643591
 H          7.9865573744        2.1108480359       -0.3863993353
 H          5.5500328340        2.3171988357       -0.3961337854
 H         -1.4530507644       -2.3012604991        0.0562938211
 H         -3.2225551663        1.0117098158       -0.3204072242
 H         -3.4813592430       -2.0119483517        0.1294074832
 H         -5.2567202070        1.3004235404       -0.5230764470
 H         -7.6784043372        1.4820160601       -0.5681758112
 H         -9.9332744620       -2.2865130546       -1.1575839259
 H        -13.6169315049        0.6856997307        0.1583481384
 H        -13.1307819799        2.7969671900        1.3713354126
 H        -10.8369485594        3.4145606345        1.9474116071
 H         -8.9304769793        1.9839812689        1.3260973664
 H         -8.0390971737       -2.6904281415        0.3217416428
 H         -5.6017658916       -2.8954357347        0.3474457771
