  93
 
 C          8.0317165047       -0.0021344304       -1.8615681016
 C          7.4835690105       -0.1966070522       -0.4351571775
 C          8.6127710034       -0.0213618084        0.5977812626
 C          6.4199511155        0.8536682751       -0.1741025477
 C          6.7601977975        2.1987256078       -0.2362396592
 C          5.8437968641        3.2026706089        0.0172488471
 C          4.5474558905        2.8626708808        0.3597966885
 C          4.1825550140        1.5342757697        0.4283821440
 C          5.1006629048        0.5176130917        0.1475627939
 N          4.7017113001       -0.8109578911        0.2201520978
 C          3.3603047031       -1.1087690062        0.5676345393
 C          3.0595890097       -1.5980028377        1.8365869460
 C          1.7516729909       -1.8776615284        2.1736935387
 C          0.7195829540       -1.6559867367        1.2607084027
 C         -0.6665364309       -1.9734874953        1.6735730712
 O         -0.9050155347       -2.8644566674        2.4729801907
 C         -1.7609284378       -1.1564439614        1.0867622763
 C         -3.0141551890       -1.7431710273        0.9420119912
 C         -4.0737464488       -1.0103293004        0.4186825576
 N         -5.3272321036       -1.6066306682        0.2536352623
 C         -5.5643750089       -2.8274713149       -0.3530780939
 C         -4.6776584390       -3.6906458902       -0.9806486349
 C         -5.1892418335       -4.8440298760       -1.5454304548
 C         -6.5510008087       -5.1343522226       -1.4992673778
 C         -7.4414189730       -4.2670214951       -0.8976862605
 C         -6.9504672105       -3.1017444949       -0.3227951955
 C         -7.5730966851       -1.9926768539        0.3464046617
 C         -8.8873896176       -1.7018593735        0.6890663035
 C         -9.1504597015       -0.5273107261        1.3660395141
 C         -8.1206396473        0.3437643592        1.7145567339
 C         -6.8051627172        0.0755769359        1.3846458275
 C         -6.5376647347       -1.0909142759        0.6824292766
 C         -3.8832435586        0.3239525936        0.0696991327
 C         -2.6370397694        0.9212621631        0.2381396361
 N         -2.4499056706        2.2617745650       -0.1136712515
 C         -2.8422138482        2.8492573729       -1.3045428240
 C         -3.4464974964        2.2814254005       -2.4172763590
 C         -3.7066020652        3.1002159959       -3.5003956210
 C         -3.3682636475        4.4515593274       -3.4894409327
 C         -2.7404241036        5.0159070920       -2.3966518749
 C         -2.4687498667        4.2124059315       -1.2966199834
 C         -1.8222073765        4.4535243719       -0.0360576161
 C         -1.2621862089        5.5832555943        0.5464451152
 C         -0.7242518627        5.4767821964        1.8138330811
 C         -0.7565425069        4.2677300270        2.5051107463
 C         -1.3105360199        3.1308018419        1.9465908045
 C         -1.8268449422        3.2242920161        0.6618163343
 C         -1.5721398652        0.1777643251        0.7398041535
 C          1.0284233090       -1.1872354673       -0.0168758313
 C          2.3386446712       -0.9176359539       -0.3593016311
 C          5.5872627853       -1.8551202693       -0.0121813882
 C          5.1266755812       -3.1748872455        0.0254844057
 C          5.9825750715       -4.2334572322       -0.1964156993
 C          7.3170760759       -3.9937971189       -0.4707239061
 C          7.7688652829       -2.6885344535       -0.5349359788
 C          6.9290679542       -1.6040718199       -0.3175199720
 H          7.2281954598       -0.1194008131       -2.5868961779
 H          8.4591787103        0.9895659480       -1.9802924229
 H          8.8034778189       -0.7336632685       -2.0840452061
 H          9.4060723755       -0.7446839512        0.4308567494
 H          9.0427510395        0.9744907921        0.5377272010
 H          8.2217627829       -0.1665539893        1.6035489737
 H          7.7722233230        2.4777402534       -0.4875836972
 H          6.1429837125        4.2382945428       -0.0428315186
 H          3.8173548838        3.6284627508        0.5778636196
 H          3.1726886237        1.2803943065        0.7112009236
 H          3.8566322860       -1.7571926141        2.5473874542
 H          1.5031441230       -2.2564121896        3.1541598412
 H         -3.1528485774       -2.7680307596        1.2506418194
 H         -3.6222391539       -3.4703655646       -1.0362862186
 H         -4.5176909068       -5.5339934957       -2.0353061704
 H         -6.9117261377       -6.0473386279       -1.9497000220
 H         -8.4986883979       -4.4843979240       -0.8760973603
 H         -9.6832468406       -2.3852697433        0.4336759836
 H        -10.1658149994       -0.2814521182        1.6401314152
 H         -8.3538579561        1.2474208037        2.2586025678
 H         -6.0150655057        0.7491845941        1.6800410420
 H         -4.7064598577        0.8983598464       -0.3255979695
 H         -3.6969458401        1.2319855966       -2.4497448067
 H         -4.1802572676        2.6809412349       -4.3760310919
 H         -3.5919205354        5.0591288372       -4.3539521252
 H         -2.4600484289        6.0584695775       -2.3947171235
 H         -1.2541513735        6.5243192205        0.0173787865
 H         -0.2807096222        6.3423000571        2.2837145005
 H         -0.3438800471        4.2174639357        3.5022224952
 H         -1.3473578460        2.2066099708        2.5035171816
 H         -0.6083190755        0.6446592578        0.8646225978
 H          0.2466367843       -1.0610172876       -0.7503769430
 H          2.5823396737       -0.5562717024       -1.3473350989
 H          4.0849088454       -3.3731210607        0.2258713417
 H          5.6025114413       -5.2438844729       -0.1579081250
 H          7.9987157347       -4.8132511233       -0.6426781246
 H          8.8093612881       -2.5156006684       -0.7644602554
