  57
 
 C         -1.2351085542        3.6053231845       -2.2471054164
 C         -1.2124584493        2.4236096016       -2.9731757269
 C         -1.3881805137        1.1985143293       -2.3428540494
 C         -1.5860452369        1.1832988541       -0.9791233753
 C         -1.6132455378        2.3756949943       -0.2405236185
 C         -1.4366748520        3.5942800868       -0.8757835651
 C         -1.8423471751        2.0461592111        1.1579212179
 C         -1.9670490867        2.8518506978        2.2782843101
 C         -2.1970347178        2.2509513405        3.5059205411
 C         -2.2989960789        0.8718925277        3.6159011368
 C         -2.1724839151        0.0580127959        2.4976995209
 C         -1.9444164523        0.6519946783        1.2753991991
 C         -1.7688178965       -0.0094858484       -0.0710170740
 C         -2.9099371429       -0.9208665037       -0.4517004737
 C         -4.2433411529       -0.6158372634       -0.5744536842
 C         -5.1310910542       -1.6302707194       -0.9260879185
 C         -4.6778051163       -2.9273186763       -1.1476699535
 C         -3.3403183339       -3.2461247142       -1.0249428094
 C         -2.4384659375       -2.2377662183       -0.6732247155
 C         -1.0270047625       -2.2618639842       -0.4733840283
 C         -0.0813233398       -3.3004023398       -0.5277662509
 C          1.2313846687       -3.0319045271       -0.2661449549
 C          1.7019377928       -1.7089441766        0.0117318807
 C          3.0784594603       -1.4336795629        0.1847443323
 C          3.9505414286       -2.4240072260        0.7496540005
 C          5.1876399570       -2.0922559722        1.2210579179
 C          5.6744692643       -0.7810279553        1.1086076393
 C          4.9279565464        0.1992627353        0.4310348844
 C          5.4447163872        1.4893693091        0.2097674671
 C          4.7669158183        2.4072898826       -0.5778367507
 C          3.5793939037        2.0444419930       -1.1833703622
 C          3.0362374273        0.7773264113       -0.9582464253
 C          3.6470394084       -0.1341995314       -0.1014095458
 C          0.7180885719       -0.6755586756        0.1159157728
 C         -0.5883921565       -0.9545029543       -0.1226368452
 H         -1.0945000663        4.5469370690       -2.7585019878
 H         -1.0554102252        2.4556582350       -4.0417218387
 H         -1.3684243739        0.2781341989       -2.9091438639
 H         -1.4542709583        4.5173942023       -0.3153440480
 H         -1.8894080544        3.9261398201        2.1982297411
 H         -2.2987922381        2.8641021887        4.3899389178
 H         -2.4802162957        0.4250631348        4.5827359537
 H         -2.2525877135       -1.0162004669        2.5842866026
 H         -4.5995207989        0.3896277739       -0.4010385073
 H         -6.1829954287       -1.4073849756       -1.0270754459
 H         -5.3875751594       -3.6955910991       -1.4199612535
 H         -2.9935395701       -4.2540387023       -1.1980090999
 H         -0.3947909493       -4.3022839378       -0.7831184297
 H          1.9532711247       -3.8294577330       -0.3512186180
 H          3.5788071863       -3.4257975836        0.8943995638
 H          5.8015147467       -2.8420590103        1.6994140277
 H          6.6554693308       -0.5332358267        1.4847419189
 H          6.3903493325        1.7541793921        0.6606635475
 H          5.1794129182        3.3937580610       -0.7322876170
 H          3.0595817157        2.7346354307       -1.8314309611
 H          2.1379258146        0.4952990744       -1.4867896364
 H          1.0177193052        0.3086902594        0.4445573188
