  112
 
 C         -6.4486504596       -4.7050454023       -3.4308186409
 C         -6.7788020723       -4.5478705873       -1.9383545484
 C         -6.0695702364       -5.6457706142       -1.1305914736
 C         -8.2897483528       -4.7291749090       -1.7636032220
 C         -6.2925082083       -3.1881472016       -1.4617333044
 C         -4.9284650918       -2.8800359036       -1.5654637028
 C         -4.3987614646       -1.6736369244       -1.1545514761
 C         -5.2626690967       -0.7350660824       -0.6049142175
 C         -6.6463576485       -1.0107439334       -0.5130033566
 C         -7.1517331724       -2.2295441052       -0.9348182840
 C         -7.2570259795        0.1682897156        0.0468044624
 C         -8.5622955065        0.4930523633        0.3772090440
 C         -8.8436472393        1.7338003415        0.9398359147
 C        -10.2535571435        2.1576980838        1.3202581458
 C        -11.3015312281        1.0918692502        0.9850803658
 C        -10.6159916827        3.4400891386        0.5552336732
 C        -10.3072737995        2.4225066640        2.8328993573
 C         -7.7815629879        2.6186779249        1.1757136430
 C         -6.4724351981        2.3214272154        0.8557306879
 C         -6.2088632797        1.0922953546        0.2642171027
 N         -5.0130367642        0.5368996829       -0.1358692482
 C         -3.7625445806        1.1604391746       -0.0813916609
 C         -2.6641708839        0.4948952353        0.4780525814
 C         -1.4328785297        1.0994784961        0.5282475023
 C         -1.2374911204        2.3945165242        0.0070654963
 C          0.0275148548        3.0997244924        0.0774059452
 O          0.0388393430        4.3743210581        0.0903221182
 C          1.2805354317        2.3715391537        0.1340029256
 C          2.4195858725        3.0163429044        0.6625671411
 C          3.6368696160        2.3889086512        0.7115153134
 C          3.7837381208        1.0925358768        0.2001861464
 N          5.0232316662        0.4465993702        0.2426403605
 C          5.2492235828       -0.8417008567        0.6779804532
 C          4.3676914084       -1.7785042153        1.2019902055
 C          4.8751475149       -3.0045395351        1.5816683818
 C          6.2335413045       -3.3343878435        1.4708970391
 C          6.6939645537       -4.7161667273        1.9080300955
 C          6.3624375298       -4.9099610262        3.3958128145
 C          5.9626869258       -5.7761632864        1.0698098371
 C          8.2008803654       -4.9215744156        1.7254245383
 C          7.1109783627       -2.3773786768        0.9719114570
 C          6.6281782920       -1.1389503845        0.5820243660
 C          7.2609505540        0.0438374127        0.0555743387
 C          8.5725150783        0.3542487312       -0.2635920313
 C          8.8768133654        1.6041813687       -0.7928960688
 C         10.2948238898        2.0133546197       -1.1589856842
 C         10.3577493013        2.3106657978       -2.6652137689
 C         11.3242578631        0.9236075650       -0.8438287855
 C         10.6754214783        3.2723173605       -0.3644083971
 C          7.8308488514        2.5130683246       -1.0085135932
 C          6.5159948934        2.2306213223       -0.6988483087
 C          6.2297206158        0.9915567459       -0.1395648277
 C          2.6762618061        0.4599584495       -0.3791242884
 C          1.4556063117        1.0866308453       -0.4182290772
 C         -2.3672116781        3.0715644675       -0.5012722126
 C         -3.5952470231        2.4665192314       -0.5608968930
 H         -5.3776916399       -4.6651027551       -3.6086208278
 H         -6.8182024204       -5.6612145667       -3.7952063753
 H         -6.9197561742       -3.9105162429       -4.0063548066
 H         -4.9921484580       -5.6055008491       -1.2638476830
 H         -6.4155975455       -6.6261488050       -1.4510900768
 H         -6.2869386135       -5.5325408877       -0.0702442638
 H         -8.8423456852       -3.9943162386       -2.3445975395
 H         -8.5760099680       -4.6492751432       -0.7173805795
 H         -8.5775621209       -5.7181147967       -2.1147148444
 H         -4.2529862057       -3.6070051806       -1.9888390374
 H         -3.3458757858       -1.4655732334       -1.2679455073
 H         -8.2098334456       -2.4098514718       -0.8498771995
 H         -9.3393625535       -0.2296020272        0.1949049112
 H        -11.3165943918        0.8791962387       -0.0814658764
 H        -11.1136850266        0.1712317147        1.5327232937
 H        -12.2876214171        1.4542101739        1.2685807261
 H        -10.5567386744        3.2680889053       -0.5177968814
 H         -9.9458333473        4.2573979101        0.8064935880
 H        -11.6310071119        3.7457488577        0.8001962345
 H        -11.3145972641        2.7120020263        3.1247435518
 H         -9.6277269215        3.2194517820        3.1218305114
 H        -10.0328016305        1.5244272196        3.3830030807
 H         -7.9813631499        3.5754364486        1.6325463437
 H         -5.6789153407        3.0206343741        1.0715366265
 H         -2.8049598590       -0.4856261382        0.9096397045
 H         -0.6127827403        0.5932550536        1.0148572158
 H          2.2936167061        4.0157027162        1.0539421360
 H          4.4832312127        2.8770586969        1.1724403325
 H          3.3185453103       -1.5545357456        1.3196290186
 H          4.1862296305       -3.7302815638        1.9850129764
 H          6.7109974967       -5.8845355868        3.7309886731
 H          6.8520837559       -4.1435090719        3.9934982588
 H          5.2928780658       -4.8511696116        3.5769410742
 H          4.8866580760       -5.7216319946        1.2090773871
 H          6.1777906344       -5.6337024595        0.0125068253
 H          6.2929428317       -6.7718645027        1.3581095352
 H          8.7684517834       -4.2148741213        2.3265764954
 H          8.4872651894       -4.8167419679        0.6814264753
 H          8.4697995830       -5.9257328470        2.0470748300
 H          8.1659554871       -2.5740162527        0.8844561942
 H          9.3364578249       -0.3863967049       -0.0988170174
 H         11.3704349186        2.5904839948       -2.9477370128
 H          9.6916459996        3.1243755225       -2.9383003393
 H         10.0707703059        1.4294250473       -3.2358522994
 H         12.3173501136        1.2768823786       -1.1140319024
 H         11.3303855692        0.6861952101        0.2175847273
 H         11.1251230957        0.0188340432       -1.4134493352
 H         10.6095971378        3.0772675583        0.7042842376
 H         10.0196127344        4.1058935760       -0.5993802618
 H         11.6961284932        3.5666383113       -0.5993210930
 H          8.0483042249        3.4774074084       -1.4406650843
 H          5.7352433561        2.9487642771       -0.8984279413
 H          2.8018264602       -0.5119915207       -0.8341881582
 H          0.6286194930        0.6064121830       -0.9193689438
 H         -2.2252042562        4.0778685670       -0.8686197512
 H         -4.4347730829        2.9802320158       -1.0062581999
