  81
 
 Br        -4.9493704181        4.6144773671       -0.4861299220
 C         -3.9292931723        3.2778629549        0.4333093844
 C         -3.1238026657        3.6535401491        1.4975694396
 C         -2.3894378630        2.6705149021        2.1491787854
 C         -2.4690330655        1.3509170616        1.7576561616
 C         -3.2875733987        0.9858430975        0.6809631885
 N         -3.4066888642       -0.3482333128        0.3018307273
 C         -2.3792224687       -1.2824548595        0.0916674769
 C         -0.9974678916       -1.0458953248        0.0265763334
 C         -0.1216875195       -2.1739290472        0.0343714513
 C          1.2274173361       -2.0311973676       -0.0079176808
 C          1.8484944214       -0.7493400285       -0.0685560753
 C          3.2654460701       -0.5886790752       -0.0668220098
 C          4.1453899813       -1.6438076201       -0.4205638744
 C          5.5032872575       -1.4850530259       -0.4208877905
 C          6.0884014193       -0.2568807764       -0.0619829185
 N          7.4648186401       -0.0935684282       -0.0622601308
 C          8.0279262163        1.1477155958       -0.3818062256
 C          7.4707760100        1.9386807184       -1.3889051622
 C          8.0277411086        3.1648905060       -1.6948875987
 C          9.1451296247        3.6189501207       -1.0107331139
 C          9.7048448052        2.8346313338       -0.0134842175
 C          9.1541072428        1.6083878483        0.3034852419
 C          8.3038669973       -1.1679619911        0.2564691137
 C          9.5060987584       -1.3510572872       -0.4299138381
 C         10.3300847966       -2.4132077775       -0.1132867254
 C          9.9711854109       -3.3069819567        0.8843087822
 C          8.7792467792       -3.1279603457        1.5698272964
 C          7.9491454827       -2.0673468216        1.2641639504
 C          5.2338245013        0.8012438939        0.2977600747
 C          3.8764270298        0.6401285023        0.2943105259
 C          0.9685243928        0.3658212734       -0.1518791303
 C         -0.3843710644        0.2324685520       -0.1149744927
 N         -2.9100550279       -2.4922279685       -0.1472251485
 C         -4.2377625368       -2.3606068706       -0.1502470512
 C         -5.1003606209       -3.5146003670       -0.3567369045
 C         -6.3351415791       -3.6393410094        0.2802489958
 C         -7.1185633931       -4.7579247222        0.0666186131
 C         -6.6835374245       -5.7675925302       -0.7772209197
 C         -5.4481986487       -5.6615069729       -1.3973358403
 C         -4.6599944314       -4.5470946254       -1.1861075514
 C         -4.5990560148       -1.0235793766        0.1205938803
 C         -5.9081838777       -0.4272815224        0.2385946020
 C         -6.8973931856       -0.7269432024       -0.7082657072
 C         -8.1512095721       -0.1596707839       -0.6165051778
 C         -8.4523939026        0.7138426955        0.4192868139
 C         -7.4877014659        1.0053318403        1.3721473808
 C         -6.2288506670        0.4460438294        1.2865376753
 C         -4.0215044811        1.9700704584        0.0096552013
 H         -3.0723173132        4.6841999096        1.8092242964
 H         -1.7596758901        2.9450078616        2.9813904763
 H         -1.9102191066        0.5870596916        2.2765516184
 H         -0.5773316023       -3.1494872339        0.1039026447
 H          1.8444699229       -2.9145630491        0.0510102460
 H          3.7364886580       -2.5870252554       -0.7463185670
 H          6.1414666777       -2.3005324449       -0.7290817619
 H          6.6102265257        1.5776889004       -1.9326031132
 H          7.5915075642        3.7667141374       -2.4783786099
 H          9.5770914676        4.5778247585       -1.2537711663
 H         10.5721087489        3.1842668731        0.5267400810
 H          9.5824277582        1.0036619372        1.0891761882
 H          9.7794362908       -0.6629990311       -1.2162403339
 H         11.2547443559       -2.5492251920       -0.6543099015
 H         10.6170714211       -4.1369666536        1.1272344297
 H          8.4976651209       -3.8150179368        2.3540199991
 H          7.0281775126       -1.9187208096        1.8084288594
 H          5.6646609963        1.7416733842        0.6098386823
 H          3.2584872243        1.4608479912        0.6228568371
 H          1.3824025187        1.3514342007       -0.3040213149
 H         -1.0020179111        1.1065629042       -0.2516069205
 H         -6.6723707653       -2.8668781537        0.9554525756
 H         -8.0730256799       -4.8438116448        0.5657966532
 H         -7.3017563342       -6.6374735769       -0.9443487658
 H         -5.1002203054       -6.4507235231       -2.0480831050
 H         -3.6947226096       -4.4505703967       -1.6599182764
 H         -6.6597598729       -1.3961468829       -1.5225276729
 H         -8.8983906879       -0.3922119742       -1.3612705370
 H         -9.4326016592        1.1614779432        0.4853149379
 H         -7.7191674351        1.6736070883        2.1891692804
 H         -5.4938046077        0.6586427092        2.0497178117
 H         -4.6422709184        1.7035677902       -0.8316714571
