  71
 
 C          2.4804987236        4.6118068297       -1.4392124742
 C          3.7965945853        4.2081087487       -1.5934727689
 C          4.2783461624        3.1282232870       -0.8793103983
 C          3.4450421139        2.4454557475        0.0057483440
 C          2.1135892892        2.8500893772        0.1661044740
 C          1.6501088216        3.9298816180       -0.5630280734
 C          1.2553441334        2.1384932818        1.1713957839
 C          1.7168662974        0.7311113748        1.4254452032
 C          3.0788571295        0.4650363425        1.3517757629
 C          3.6175021727       -0.6996935464        1.9049034994
 C          2.7766120512       -1.5615830945        2.6067878911
 C          1.4252004196       -1.3385848029        2.6536361885
 C          0.8340121726       -0.2443062462        1.9707155465
 C         -0.5869341075       -0.1874422549        1.8160493535
 C         -1.4466993753       -0.5141465303        2.9056426329
 C         -2.7874634993       -0.3363205940        2.8205769067
 C         -3.3778311558        0.1088444816        1.5986309376
 C         -2.5701050703        0.3182050537        0.4558376304
 C         -1.2057668106        0.1513994070        0.5435399215
 C         -0.3451484477        0.1438890620       -0.6554508169
 C         -0.2141028713        1.2752057594       -1.4649399951
 C          0.6571834685        1.2923575823       -2.5349915266
 C          1.4486895987        0.1920535602       -2.8056604135
 C          1.3073751014       -0.9581012078       -2.0325925204
 C          0.3814288696       -1.0061797821       -0.9875131176
 C          0.1131792014       -2.3408964403       -0.3467151612
 C          1.3310924495       -3.2173839352       -0.3398885287
 C          1.5242103939       -4.2026259881        0.6111723093
 C          2.6242648078       -5.0437020127        0.5534462954
 C          3.5491504871       -4.8974345724       -0.4672179924
 C          3.3828014476       -3.9079510033       -1.4175134903
 C          2.2771439065       -3.0632374485       -1.3590504447
 N          2.0897708305       -2.0702688489       -2.2998052796
 C         -3.2345128678        0.6163119217       -0.8633985556
 C         -4.7316796399        0.6998128818       -0.8213086965
 C         -5.4549792115        0.9852525989       -1.9641207900
 C         -6.8403035474        1.0744124031       -1.9397340434
 C         -7.5264788942        0.8775573909       -0.7415009172
 C         -6.8340717466        0.5951175185        0.4111097744
 C         -5.4323164939        0.5029169942        0.3878644384
 N         -4.7374221460        0.2189700042        1.5258296639
 N          3.9185999743        1.3862288391        0.7445783889
 H          2.1031347544        5.4572712653       -1.9951598390
 H          4.4506420124        4.7358538857       -2.2725177610
 H          5.3047655180        2.8081741212       -0.9959973907
 H          0.6268789791        4.2523126292       -0.4338617457
 H          1.3262904652        2.6828465711        2.1283715760
 H          0.2051618083        2.1675124091        0.8844189402
 H          4.6759557225       -0.8994602319        1.8278745516
 H          3.1966883320       -2.4322265047        3.0900318332
 H          0.7845143429       -2.0524720548        3.1498163109
 H         -1.0010140456       -0.8369998318        3.8348695734
 H         -3.4329754740       -0.5352570357        3.6642999795
 H         -0.7813405835        2.1645173028       -1.2369554121
 H          0.7474491988        2.1804651971       -3.1429352461
 H          2.1670192236        0.2127916409       -3.6129408245
 H         -0.6731451933       -2.8419597023       -0.9322148869
 H         -0.2774665912       -2.2222103039        0.6640110981
 H          0.7973116985       -4.3198746441        1.4019132757
 H          2.7567257842       -5.8130686662        1.2996582747
 H          4.4068952201       -5.5523131263       -0.5208061314
 H          4.1072473525       -3.7830976663       -2.2108078503
 H          2.8093629811       -1.9586762047       -2.9998611047
 H         -2.8551921917        1.5648120167       -1.2565080928
 H         -2.9292261673       -0.1456910505       -1.5913047527
 H         -4.9256949991        1.1379989618       -2.8943721280
 H         -7.3846076452        1.2945330803       -2.8451704321
 H         -8.6040970438        0.9471319951       -0.7205299989
 H         -7.3553780027        0.4407150789        1.3454939579
 H         -5.2652619530        0.0393996279        2.3704727279
 H          4.8813286929        1.1130791810        0.6122306609
