  65
 
 N        -10.6516366057       -0.0100635492       -0.0069955172
 C         -9.5036675476       -0.0090324620       -0.0064757849
 C         -8.0941912663       -0.0077587313       -0.0058142962
 C         -7.3914690971        0.6389768030        1.0159458659
 C         -6.0155110344        0.6447563628        1.0076475690
 C         -5.2954264098       -0.0051797761       -0.0044875021
 C         -3.8388779546       -0.0038283072       -0.0038017766
 C         -3.1272832065        1.2370219991        0.0525670176
 C         -3.7889902095        2.4670789038        0.0220227280
 C         -3.0990572893        3.6686457755        0.1617278118
 C         -1.7330221220        3.6561511116        0.3426377733
 C         -1.0420367261        2.4477131122        0.3147608500
 C         -1.7024971577        1.2330899660        0.1125550912
 C         -0.9893333087       -0.0011865512       -0.0024771889
 C          0.4683609458        0.0001995605       -0.0018197461
 C          1.1891874741        0.7760932448       -0.9169713066
 C          2.5665093020        0.7684399268       -0.9276977402
 C          3.2737442298        0.0030060222       -0.0004763278
 N          4.6707477006        0.0044064573        0.0002063608
 C          5.4787529062        1.1246991642       -0.0500639220
 C          5.1306425092        2.4679697268       -0.0560364510
 C          6.1513061917        3.3994405749       -0.0821489272
 C          7.4892306646        3.0128143793       -0.0909663740
 C          7.8424161675        1.6781378394       -0.0552357264
 C          6.8344567362        0.7243013420       -0.0295136294
 C          6.8358448459       -0.7112128375        0.0320565573
 C          7.8456571661       -1.6630603691        0.0587699905
 C          7.4950684628       -2.9984309417        0.0941465144
 C          6.1579187902       -3.3876961742        0.0840042347
 C          5.1354475192       -2.4582398487        0.0568883635
 C          5.4809158243       -1.1142861356        0.0512690805
 C          2.5671500769       -0.7638572863        0.9260531444
 C          1.1898566113       -0.7742711461        0.9140069706
 C         -1.7000955214       -1.2367869419       -0.1181391547
 C         -1.0371963967       -2.4501910897       -0.3196825892
 C         -1.7259191022       -3.6599066493       -0.3481774675
 C         -3.0920998136       -3.6749250396       -0.1685609313
 C         -3.7843869753       -2.4746342151       -0.0295375463
 C         -3.1249283399       -1.2433564488       -0.0594858638
 C         -6.0133527876       -0.6564466866       -1.0173001348
 C         -7.3893114642       -0.6532037494       -1.0269037751
 H         -7.9374995656        1.1276777099        1.8097707806
 H         -5.4754094436        1.1258645390        1.8101085661
 H         -4.8586327550        2.4937711293       -0.1184448187
 H         -3.6429702544        4.6009006109        0.1410166991
 H         -1.1900644265        4.5773867231        0.4917854877
 H          0.0273385897        2.4526516954        0.4597418913
 H          0.6513708644        1.3536419717       -1.6545469513
 H          3.1070152851        1.3358105487       -1.6704916324
 H          4.0979354285        2.7807776017       -0.0277293832
 H          5.9052187496        4.4509546707       -0.0918404599
 H          8.2576125738        3.7709694935       -0.1151699382
 H          8.8792581969        1.3781036442       -0.0426704319
 H          8.8819176133       -1.3609832954        0.0472284605
 H          8.2649190580       -3.7550697823        0.1191048395
 H          5.9138942996       -4.4396930820        0.0934453053
 H          4.1033872660       -2.7730810055        0.0275542737
 H          3.1080774165       -1.3301424328        1.6693685005
 H          0.6524928855       -1.3528959234        1.6510691192
 H          0.0323238748       -2.4531526217       -0.4636469740
 H         -1.1811194597       -4.5801419111       -0.4967842963
 H         -3.6343072997       -4.6081837498       -0.1483405939
 H         -4.8541106606       -2.5033012392        0.1099196134
 H         -5.4716042144       -1.1365583901       -1.8192476451
 H         -7.9336842078       -1.1429118667       -1.8212461653
