  72
 
 C         -2.2546368740       -0.0202588475       -3.1898381179
 C         -3.1639898285       -0.0125814973       -2.2101446804
 C         -2.8212533592       -0.0014820690       -0.7381090641
 C         -1.3479223158       -0.0024147481       -0.4764866878
 C         -0.4402353231       -0.0098839223       -1.4775373807
 C         -0.8568258627       -0.0187223190       -2.8873453461
 C          0.2515168292       -0.0244923169       -3.6688893895
 C          1.4216629361       -0.0194334033       -2.8133770598
 C          0.9815993302       -0.0107491500       -1.4743981046
 C          1.8955807321       -0.0056962594       -0.2803889951
 C          3.3175955570       -0.0035170160       -0.7519649036
 C          4.4967813531        0.0058287091        0.0493130252
 C          4.6979460091        0.0177509994        1.4191630727
 C          6.0050711735        0.0251116772        1.9033530001
 C          7.0899277416        0.0206349863        1.0400554866
 C          6.9090121216        0.0087433946       -0.3419792764
 C          5.6178682539        0.0015789780       -0.8445253869
 C          5.1145389101       -0.0097035439       -2.1750467177
 C          3.7098239382       -0.0125377249       -2.1184111044
 C          2.7622534325       -0.0212932778       -3.1639946407
 C          1.6669231049       -1.2979081623        0.4904440140
 C          1.9900694226       -2.4803887631       -0.1723210116
 C          1.8126915578       -3.7158571378        0.4178520503
 C          1.2978441124       -3.7958301171        1.7028383506
 C          0.9662248499       -2.6383100152        2.3743120940
 C          1.1494024244       -1.3940404188        1.7738928053
 S          0.6701245630       -0.0049565529        2.7540478944
 C          1.1438180574        1.3839866946        1.7707804200
 C          0.9564013855        2.6287965736        2.3686928609
 C          1.2832560911        3.7860806581        1.6944566038
 C          1.7972534922        3.7052840877        0.4091941770
 C          1.9790254336        2.4692056875       -0.1784106382
 C          1.6609709419        1.2869836878        0.4872225482
 C         -3.4419528694       -1.2543551080       -0.1295465555
 C         -2.6549506053       -2.3748930042        0.1122609953
 C         -3.2033637528       -3.5468911074        0.6002783593
 C         -4.5629780834       -3.6231923684        0.8547384684
 C         -5.3619580247       -2.5213436546        0.6231460866
 C         -4.8041277930       -1.3465267478        0.1330306720
 S         -5.9055835186        0.0098500154       -0.1488009057
 C         -4.7981612931        1.3654533403        0.1125527062
 C         -5.3509454069        2.5498261660        0.5850653987
 C         -4.5471311142        3.6513204892        0.8010195319
 C         -3.1877493121        3.5650819178        0.5485009366
 C         -2.6443492481        2.3836258295        0.0779538553
 C         -3.4363455113        1.2632931733       -0.1483465976
 H         -2.5608739291       -0.0278909671       -4.2271453447
 H         -4.2203985209       -0.0144035018       -2.4373085836
 H         -1.0571920954        0.0040991575        0.5636536082
 H          0.2893287173       -0.0313684345       -4.7434387192
 H          3.8637727295        0.0215702204        2.1048509375
 H          6.1735516016        0.0345302460        2.9702800876
 H          8.0915946580        0.0264612665        1.4442841147
 H          7.7607331971        0.0053895386       -1.0067219531
 H          5.7076644490       -0.0148854298       -3.0713078583
 H          3.0787058620       -0.0279417503       -4.1956440942
 H          2.3855252056       -2.4158484482       -1.1755357398
 H          2.0739909784       -4.6128434611       -0.1228977909
 H          1.1531884684       -4.7541056111        2.1782797975
 H          0.5586364357       -2.6759836460        3.3739302869
 H          0.5495114702        2.6671046012        3.3685691535
 H          1.1354416881        4.7448097485        2.1680071471
 H          2.0546781407        4.6021078349       -0.1336852091
 H          2.3741940233        2.4038284183       -1.1817296198
 H         -1.5970196707       -2.3282609288       -0.1014696106
 H         -2.5676398585       -4.4018593702        0.7734511259
 H         -5.0001823975       -4.5349491794        1.2326293241
 H         -6.4241929431       -2.5558941799        0.8139940643
 H         -6.4130933430        2.5918239135        0.7749114388
 H         -4.9804141554        4.5705129585        1.1651883903
 H         -2.5482106990        4.4195294955        0.7097188615
 H         -1.5864363849        2.3291790649       -0.1340322025
