64
 xtb: 6.7.1 (edcfbbe)
C            8.49921573957068       -0.00006182249522        0.00005792939728
C            7.80466804248635       -0.57010446463525       -1.06040865201763
C            6.42083242613161       -0.57224955445841       -1.06067681168374
C            5.71700567518210       -0.00002623190129        0.00000524251559
C            4.23444854399092       -0.00001712116154       -0.00002233233204
C            3.53842526403783       -1.12389660850906        0.46302915191049
C            4.21660076816558       -2.27529664071400        0.94400208949227
C            3.52980583786850       -3.36362739615441        1.38670095887020
C            2.11954765935750       -3.36861871139944        1.37548261225367
C            1.43168752422908       -2.28315067320151        0.92749996842235
C            2.10851595735255       -1.12474338564372        0.46164287930737
C            1.41285707534788        0.00000180150564       -0.00004380512982
C           -0.06872921282459        0.00001424068049       -0.00004323780471
C           -0.77463238296406       -0.31923454611175       -1.15557195694834
C           -2.15641337439651       -0.31722023295647       -1.16007205839182
C           -2.85700567289086        0.00002716024032       -0.00002221186795
N           -4.26177380703027        0.00002688008790       -0.00000570458097
C           -5.06921370055015        1.03870298196317        0.41688379625054
C           -4.71874720908426        2.30070382655646        0.87647322044664
C           -5.73767834644999        3.17174959539478        1.21155669908077
C           -7.07715026200678        2.80626303484670        1.08902013170421
C           -7.43227716024839        1.56037134091797        0.61130355833145
C           -6.42578933381361        0.66698471308981        0.26636537591892
C           -6.42579805941685       -0.66694449627104       -0.26626920167198
C           -7.43229766255152       -1.56033686293296       -0.61115789349412
C           -7.07718710834601       -2.80622470071275       -1.08889686013406
C           -5.73771917602825       -3.17170080314164       -1.21150648069529
C           -4.71877649288978       -2.30065018309551       -0.87647038654877
C           -5.06922746223772       -1.03865384702963       -0.41685688097784
C           -2.15639244913760        0.31727070260183        1.16001623818472
C           -0.77461226272013        0.31927140692432        1.15549581848450
C            2.10853827184374        1.12473792200213       -0.46171893922967
C            1.43173072075847        2.28315378949923       -0.92758721450854
C            2.11960890540788        3.36860754676490       -1.37556912600491
C            3.52986725717243        3.36360026554293       -1.38676367272161
C            4.21664455405871        2.27525714349004       -0.94405997668565
C            3.53844788621586        1.12386637867494       -0.46309685713919
C            6.42080502657275        0.57218222000097        1.06071321375030
C            7.80464113298698        0.57000123536797        1.06049711120165
H            9.57967407875506       -0.00006450363151        0.00005695982106
H            8.34250708134795       -0.88335357273574       -1.94538535870369
H            5.87619924525120       -0.88320003922969       -1.94289785723466
H            5.29692533784921       -2.26851699692836        0.95150756701610
H            4.05876614545081       -4.22944209166030        1.75841659426789
H            1.59123904309340       -4.23657549534695        1.74311434741170
H            0.35142294717859       -2.28087438479245        0.93039376908907
H           -0.23270936028612       -0.56995568832900       -2.05599862548157
H           -2.69965890767804       -0.55531638111575       -2.06257526136407
H           -3.68432170990667        2.60013347906632        0.95550587106689
H           -5.49088353223472        4.16303199604274        1.56396828141696
H           -7.84512873134093        3.51754954210285        1.35610474896745
H           -8.47048047267306        1.28465940343138        0.49994869925084
H           -8.47049806075628       -1.28461590753639       -0.49978268432490
H           -7.84517736023310       -3.51750242583085       -1.35597132342014
H           -5.49093937834134       -4.16297781875024       -1.56393851761240
H           -3.68435561852855       -2.60007829947465       -0.95554453949169
H           -2.69962656922198        0.55536465005921        2.06253887894719
H           -0.23267730595402        0.56997709818700        2.05593181235865
H            0.35146130722958        2.28087868959613       -0.93049117467390
H            1.59130580061229        4.23656706442599       -1.74318511943221
H            4.05883272834206        4.22940387637352       -1.75846594305425
H            5.29696402707596        2.26846629933235       -0.95152822720111
H            5.87615873071641        0.88314374670886        1.94290184294064
H            8.34246680442635        0.88325113849356        1.94546192686069
