  108
 
 C         -7.2989902930        1.8084348371       -2.1156200163
 C         -7.3633153261        0.4377988275       -1.9170063066
 C         -6.2022155013       -0.3079615306       -1.8523930470
 C         -4.9616022847        0.3149490654       -1.9795931737
 C         -3.7311920743       -0.4679046024       -1.8687711199
 N         -2.5912732963        0.2106874505       -1.7377768133
 C         -1.4551166041       -0.4447337805       -1.5541699152
 C         -0.2462945402        0.3302543714       -1.2400027634
 C          0.9699153208        0.0347775932       -1.8471797569
 C          2.1100801694        0.7438490583       -1.5333917515
 C          2.0596164292        1.7635663989       -0.5830470987
 N          3.2262925078        2.4603131464       -0.2557695395
 C          3.4007790379        3.8212018787       -0.4652918455
 C          2.4607441119        4.8025635792       -0.7351445610
 C          2.9100009230        6.0972060841       -0.9203548783
 C          4.2650157756        6.4106956200       -0.8509634751
 C          5.2084742226        5.4319823181       -0.6074417568
 C          4.7784356021        4.1250933986       -0.4153015504
 C          5.4644687236        2.8868178883       -0.1733501239
 C          6.8232429986        2.5809569989       -0.0938694323
 C          7.2145402611        1.2793237153        0.1183271524
 C          6.2324561399        0.3094779523        0.3233612199
 C          4.8418719751        0.5820835687        0.2732350371
 C          4.1753716821       -0.6500097336        0.6041175860
 C          2.8581513189       -1.0132555794        0.8723197754
 C          2.5776207734       -2.3207953686        1.2139586638
 C          3.5867778784       -3.2746159078        1.3194157768
 C          4.9081532724       -2.9338435758        1.1127942819
 C          5.1946214085       -1.6221318709        0.7607032402
 N          6.4237359674       -1.0288452941        0.5859955740
 C          7.6658047934       -1.6769379352        0.7122127119
 C          8.6141626379       -1.2067678077        1.6151020507
 C          9.8328098236       -1.8508248471        1.7316137309
 C         10.1088598933       -2.9686540079        0.9611700689
 C          9.1618156114       -3.4417123632        0.0676161321
 C          7.9443339905       -2.7982358588       -0.0628912718
 C          4.4716430245        1.8888719365       -0.0592454345
 C          0.8482995353        2.0760090360        0.0271398450
 C         -0.2994146513        1.3654106837       -0.2929344881
 N         -1.5064387827        1.6638157558        0.3622112337
 C         -2.2288364672        2.8307486113        0.1926368159
 C         -1.8532561021        4.0226988476       -0.4067266897
 C         -2.7806613305        5.0470124871       -0.4439773873
 C         -4.0564826166        4.8926215835        0.0952594710
 C         -4.4458551281        3.7001658552        0.6721409457
 C         -3.5289807187        2.6581797194        0.7177698256
 C         -3.5915232944        1.3087925949        1.1950334164
 C         -4.5686054794        0.4885362922        1.7390403104
 O         -5.8657567240        0.8056616369        1.9966937752
 C         -6.4446549342       -0.3341460659        2.4780795850
 C         -7.7650240034       -0.4860791066        2.8590990778
 C         -8.1521903534       -1.7335381219        3.3180576991
 C         -7.2496443217       -2.7914578399        3.3923946925
 C         -5.9307741484       -2.6375824580        3.0106513940
 C         -5.5187504228       -1.3943834112        2.5468126289
 C         -4.2784560782       -0.8494754707        2.0621027102
 C         -2.9953506466       -1.3705147633        1.8812619890
 C         -2.0093314155       -0.5762827575        1.3385940022
 C         -2.3231384990        0.7310160945        0.9644464415
 C         -1.4594285056       -1.8394472782       -1.5871029139
 S         -0.1489815739       -2.9614576885       -1.3617589555
 C         -1.2635553056       -4.3143671980       -1.4741766786
 C         -0.9246405218       -5.6551922831       -1.3883369048
 C         -1.9336444983       -6.5933534312       -1.4991891941
 C         -3.2580897600       -6.2051350036       -1.6924177053
 C         -3.5957640599       -4.8705869985       -1.7786621708
 C         -2.5932369850       -3.9098301439       -1.6717544911
 C         -2.7089310334       -2.4777200822       -1.7307613262
 N         -3.8352610803       -1.7929616203       -1.8572663709
 C         -4.9038358931        1.6927276600       -2.1813334269
 C         -6.0685346307        2.4321772243       -2.2510444260
 H         -8.2079539977        2.3899562379       -2.1634234462
 H         -8.3213951715       -0.0493577441       -1.8085895673
 H         -6.2341596506       -1.3743842745       -1.6896751170
 H          1.0153527266       -0.7447308464       -2.5924150821
 H          3.0473813684        0.5097663220       -2.0129120613
 H          1.4101265249        4.5695017623       -0.8067858260
 H          2.1944960544        6.8800348501       -1.1251941373
 H          4.5786081932        7.4337626614       -0.9981216610
 H          6.2600614227        5.6732803215       -0.5682688776
 H          7.5575587444        3.3620090655       -0.2155056058
 H          8.2587565063        1.0094298105        0.1371944105
 H          2.0632508193       -0.2868432343        0.8432991750
 H          1.5563469000       -2.6088273040        1.4160369622
 H          3.3335425292       -4.2885372139        1.5922078685
 H          5.6977508700       -3.6584551173        1.2424259842
 H          8.3865027723       -0.3464438195        2.2270883423
 H         10.5664864919       -1.4821802776        2.4332427683
 H         11.0597710993       -3.4707201383        1.0578436666
 H          9.3736746208       -4.3119463655       -0.5360387465
 H          7.2074661916       -3.1531076943       -0.7683185818
 H          0.8044050676        2.8428281683        0.7858419172
 H         -0.8740625612        4.1434286374       -0.8436675152
 H         -2.5109757320        5.9864548790       -0.9036796279
 H         -4.7517143552        5.7176777758        0.0502302703
 H         -5.4378909510        3.5656357781        1.0754363453
 H         -8.4571202877        0.3385648410        2.7964989592
 H         -9.1757890505       -1.8882829617        3.6239518204
 H         -7.5905056303       -3.7495498038        3.7556274821
 H         -5.2330406329       -3.4591987019        3.0674509611
 H         -2.7847099663       -2.3919579416        2.1597345798
 H         -1.0099745370       -0.9597494560        1.1917488867
 H          0.1022868825       -5.9496056288       -1.2381930699
 H         -1.6895814541       -7.6429080726       -1.4352345729
 H         -4.0262605611       -6.9587352022       -1.7747188844
 H         -4.6142360029       -4.5481894199       -1.9280300652
 H         -3.9392022322        2.1661197800       -2.2767780965
 H         -6.0163149346        3.4995243437       -2.4056589580
