  64
 
 C         -6.5044571508       -1.5655033735        0.7588781682
 C         -5.5925329137       -0.4878154794        0.1402942237
 C         -6.4447941508        0.6296970506       -0.4926235351
 C         -4.7400039452        0.1119056899        1.2393783549
 C         -5.3512867263        0.7408635268        2.3158413535
 C         -4.6227215321        1.2880746300        3.3560432978
 C         -3.2396023971        1.1997456656        3.3396074468
 C         -2.6051671593        0.5820486014        2.2846322422
 C         -3.3390083988        0.0444538348        1.2185176768
 N         -2.6748147371       -0.5574064808        0.1661203464
 C         -1.2518202855       -0.6125151695        0.1854183531
 C         -0.6097147252       -1.8017680117        0.5575217543
 C          0.7587938659       -1.8474112609        0.5649602042
 C          1.5246579075       -0.7229280942        0.2157861745
 C          0.8836827950        0.4851369837       -0.1494960102
 C         -0.5184314731        0.5014849852       -0.1612148720
 C          1.6821232034        1.6379308077       -0.4923171523
 C          1.1220088273        2.8703010776       -0.8352062994
 C          1.9166273917        3.9611799302       -1.1572979968
 C          1.3139774935        5.1878300661       -1.4930846613
 N          0.8197503792        6.1897218234       -1.7665491027
 C          3.3227909335        3.8464864661       -1.1477912846
 C          3.8895232209        2.6504973515       -0.8124214991
 C          3.0995113312        1.5325297505       -0.4780415462
 C          3.7422560643        0.3107729727       -0.1243087458
 N          5.0663474712        0.2093003953       -0.1156471240
 C          5.6802278178       -0.9283773190        0.2158958426
 C          7.0704031359       -1.0520617401        0.2271464485
 C          7.6710362503       -2.2472811850        0.5744525510
 C          6.8995641302       -3.3492586729        0.9207497981
 C          5.5193259813       -3.2626585440        0.9221415347
 C          4.8798675184       -2.0740023995        0.5766845430
 N          3.5459486326       -1.9556690607        0.5677062049
 C          2.9537431739       -0.8241559842        0.2320827545
 C         -3.3488089429       -1.1244400733       -0.8990977220
 C         -2.6215310589       -1.6937775344       -1.9531889146
 C         -3.2652299838       -2.2799978505       -3.0204515917
 C         -4.6504533720       -2.3040379193       -3.0613944667
 C         -5.3713473690       -1.7245059151       -2.0333493462
 C         -4.7505909283       -1.1252479734       -0.9454679196
 H         -7.1352277451       -1.1388858333        1.5331303399
 H         -5.9001935459       -2.3544855814        1.2031552251
 H         -7.1457782647       -2.0082877540        0.0025985949
 H         -5.7983379205        1.3901298073       -0.9271882344
 H         -7.0773500491        1.1021589371        0.2529897114
 H         -7.0817617306        0.2318941200       -1.2770744866
 H         -6.4274549764        0.8079473612        2.3495246494
 H         -5.1299915883        1.7730806876        4.1759964626
 H         -2.6544881719        1.6105533043        4.1485293234
 H         -1.5290562341        0.5088046841        2.2809404789
 H         -1.1991481047       -2.6638562639        0.8292517910
 H          1.2861928299       -2.7471736494        0.8419633790
 H         -1.0548721532        1.3936611230       -0.4424933455
 H          0.0517665500        3.0039554725       -0.8537938805
 H          3.9295059977        4.7024075914       -1.4026888531
 H          4.9618325478        2.5294121877       -0.7923435407
 H          7.6592524324       -0.1889591535       -0.0437892127
 H          8.7480827181       -2.3212277296        0.5751651512
 H          7.3764500759       -4.2792559153        1.1906393397
 H          4.9072063009       -4.1108422633        1.1884727230
 H         -1.5434223461       -1.6700258454       -1.9299276208
 H         -2.6857441726       -2.7155007051       -3.8204526714
 H         -5.1651319807       -2.7640752896       -3.8910538698
 H         -6.4487128680       -1.7411726945       -2.0862937936
