  58
 
 C          6.4141397183       -3.5832410812       -0.8446766253
 C          5.5689907781       -4.6450882775       -1.1371545065
 N          4.2478409768       -4.5481854796       -1.1283222754
 C          3.7099445447       -3.3817781741       -0.8294948576
 C          4.4591473970       -2.2437766613       -0.5238318055
 C          3.8034613107       -0.9723140220       -0.2071852751
 N          2.4775856459       -0.9508884880       -0.2001734854
 C          1.8616171811        0.2000135197        0.0718049002
 C          0.3980962078        0.1792341338        0.0631128011
 C         -0.2640474151       -0.8560790361       -0.6012286737
 C         -1.6406684782       -0.9100861589       -0.6320662800
 C         -2.3937326215        0.0718914266        0.0104774454
 N         -3.8010800729        0.0226425590       -0.0136792123
 C         -4.5381729787        1.0550925448       -0.6022643873
 C         -3.9319697002        2.1218392410       -1.2553238051
 C         -4.6917798695        3.1279540369       -1.8327201611
 C         -6.0703829502        3.0802173993       -1.7788560569
 C         -6.6921459998        2.0047191644       -1.1615362905
 C         -5.9382612919        0.9979069767       -0.5866043848
 O         -6.6279214689       -0.0510048192       -0.0259323251
 C         -5.8887455060       -1.0658230645        0.5358887059
 C         -6.5950555530       -2.1116822628        1.1014598897
 C         -5.9242319963       -3.1568135592        1.7194192861
 C         -4.5453706228       -3.1351329380        1.7827439302
 C         -3.8329996258       -2.0894064601        1.2153156719
 C         -4.4877623982       -1.0511673971        0.5633565695
 C         -1.7399750865        1.1029438162        0.6832846475
 C         -0.3619158168        1.1560468651        0.7087863633
 C          2.6068296625        1.3545921595        0.3360280560
 C          3.9924367024        1.2302514053        0.3253449503
 C          4.8796448745        2.3654143484        0.5969970126
 C          6.1554765976        2.4377630565        0.0308408741
 N          6.9762112055        3.4456774737        0.2616222161
 C          6.5328935629        4.4059405749        1.0552144265
 N          5.3568062345        4.4421369666        1.6554283148
 C          4.5398967890        3.4259097889        1.4378781706
 N          4.5874079560        0.0703636133        0.0508897376
 C          5.8490527466       -2.3599768884       -0.5318152532
 H          7.4849171200       -3.7128323580       -0.8613065370
 H          5.9605046862       -5.6220171623       -1.3893520660
 H          2.6299766089       -3.3370596172       -0.8273261189
 H          0.3256627481       -1.6062232546       -1.1037424015
 H         -2.1434010042       -1.7067291037       -1.1597088199
 H         -2.8562952103        2.1631662972       -1.3211488140
 H         -4.1926065407        3.9464202152       -2.3284293787
 H         -6.6669993347        3.8621003912       -2.2216303307
 H         -7.7670420106        1.9241390346       -1.1201584696
 H         -7.6723390065       -2.0850831539        1.0522937055
 H         -6.4838126495       -3.9693235071        2.1552728360
 H         -4.0085658163       -3.9300398862        2.2773196968
 H         -2.7571814708       -2.0785031828        1.2887537271
 H         -2.3220567131        1.8547784459        1.1952768215
 H          0.1195090279        1.9467984631        1.2629441248
 H          2.1368241641        2.3077287991        0.5060907047
 H          6.5099170618        1.6583449426       -0.6303040894
 H          7.1995067469        5.2392965790        1.2354965800
 H          3.5969908816        3.4584006942        1.9693669611
 H          6.4552300716       -1.4994699390       -0.2927354403
