  48
 
 N         -6.2474304951        0.0002502763       -3.4261691455
 C         -5.6829327306        0.0002371466       -2.4296352783
 C         -4.9811404305        0.0001753015       -1.1991080091
 C         -5.6883984166       -0.0000174626        0.0000005561
 C         -4.9811474759       -0.0001461682        1.1991133754
 C         -5.6829475687       -0.0003032960        2.4296357347
 N         -6.2474511458       -0.0004500054        3.4261632452
 C         -3.5861573147       -0.0001607415        1.2004720483
 C         -2.8866247042        0.0000044311        0.0000090110
 C         -1.4047818523        0.0000174448        0.0000104861
 C         -0.7147529736       -1.2179136793        0.0000170720
 C         -1.3927011529       -2.4652944398        0.0000374861
 C         -0.7048859320       -3.6392587941        0.0000764613
 C          0.7047862285       -3.6392808264        0.0000953585
 C          1.3926499244       -2.4653389696        0.0000708997
 C          0.7147444534       -1.2179299999        0.0000288425
 C          1.4047838112        0.0000033467        0.0000008250
 C          2.8866317536        0.0000424082       -0.0000063058
 C          3.5861669441        0.0002549850        1.2004553911
 C          4.9811561421        0.0002003710        1.1990938519
 C          5.6829519759        0.0004911019        2.4296197870
 N          6.2474510395        0.0003772802        3.4261501786
 C          5.6884044663        0.0000298612       -0.0000207408
 C          4.9811437142       -0.0002122772       -1.1991279385
 C          5.6829261472       -0.0004681485       -2.4296618005
 N          6.2474154917       -0.0006485326       -3.4262007232
 C          3.5861546647       -0.0001749332       -1.2004751237
 C          0.7147512367        1.2179322424       -0.0000208139
 C          1.3927003159        2.4653129269       -0.0000662609
 C          0.7048795242        3.6392740687       -0.0000838065
 C         -0.7047933302        3.6392922309       -0.0000541571
 C         -1.3926526794        2.4653492220       -0.0000120727
 C         -0.7147446537        1.2179448163        0.0000010989
 C         -3.5861504394        0.0001815207       -1.2004581274
 H         -6.7682524402       -0.0000858971       -0.0000026879
 H         -3.0496252745       -0.0002498606        2.1380366650
 H         -2.4730088924       -2.4678184963        0.0000302253
 H         -1.2330043013       -4.5807981289        0.0000731335
 H          1.2328662270       -4.5808424495        0.0001053727
 H          2.4729557992       -2.4679085015        0.0000740414
 H          3.0496355498        0.0004617703        2.1380198148
 H          6.7682582324        0.0001046937       -0.0000262827
 H          3.0496138274       -0.0003096106       -2.1380341734
 H          2.4730080905        2.4678362454       -0.0000760633
 H          1.2329964153        4.5808134533       -0.0000958604
 H         -1.2328755932        4.5808516580       -0.0000447002
 H         -2.4729585506        2.4679115640        0.0000045773
 H         -3.0496126274        0.0002648516       -2.1380194678
