  93
 
 N          1.7159130583        6.0960832692       -1.0646199161
 C          1.6383158175        4.9724895568       -0.8512430368
 C          1.5477627609        3.5863945817       -0.5823709988
 C          0.3022751616        2.9667422045       -0.5548924426
 C          0.2271272480        1.6049091432       -0.2858985785
 C         -1.0762865706        0.9355938069       -0.2509326967
 N         -2.1591682975        1.6999497583       -0.2804673534
 C         -3.3215117257        1.0485966119       -0.2800442392
 N         -4.4657542026        1.7856385407       -0.3554603803
 C         -5.7255272248        1.3130861508       -0.7322244118
 C         -6.1079052590        0.0643590744       -1.1920737311
 C         -7.4388285770       -0.1240829879       -1.5241058438
 C         -8.3689204261        0.9036625999       -1.4165597792
 C         -7.9853191187        2.1608898354       -0.9896543524
 C         -6.6565026958        2.3690338296       -0.6511078614
 C         -5.9328066192        3.5330296343       -0.2088961186
 C         -6.3226282984        4.8373052221        0.0573782546
 C         -5.3665058765        5.7375063165        0.4876447166
 C         -4.0452686002        5.3413361245        0.6624575089
 C         -3.6377221169        4.0437126681        0.4038704777
 C         -4.5877899374        3.1431050484       -0.0464469687
 N         -3.4381580880       -0.2739646020       -0.2080585170
 C         -2.2953661714       -0.9511132748       -0.1467176468
 N         -2.3659597681       -2.3078611184       -0.0325369023
 C         -3.4919550510       -3.0422807456        0.3518289990
 C         -4.7371912269       -2.6115003107        0.7774971591
 C         -5.6723378968       -3.5719279300        1.1244950732
 C         -5.3796102279       -4.9296260082        1.0644663810
 C         -4.1278429657       -5.3638262848        0.6717332228
 C         -3.1780241959       -4.4165131679        0.3195783281
 C         -1.8030047579       -4.5231144708       -0.0939783330
 C         -0.9685472451       -5.6111201697       -0.3021801248
 C          0.3316093092       -5.3769909944       -0.7074294497
 C          0.7880503184       -4.0805164929       -0.9155401663
 C         -0.0324578602       -2.9827266565       -0.7193718329
 C         -1.3299319762       -3.2096905440       -0.2929440802
 N         -1.0877619835       -0.3889596492       -0.1899444746
 C          1.3937116489        0.8812099720       -0.0534639720
 C          2.6432377066        1.4885199688       -0.0822493379
 Si         4.2092060087        0.4596843505        0.2293560432
 C          4.0993438600       -1.1090165855       -0.8264086604
 C          3.4537363250       -1.0938105137       -2.0603162743
 C          3.4248759325       -2.2182905587       -2.8647029907
 C          4.0452063041       -3.3844602107       -2.4462930170
 C          4.6847131510       -3.4197868361       -1.2178587331
 C          4.7089732288       -2.2915028358       -0.4180272338
 C          5.7237185919        1.4726793119       -0.2875960830
 C          6.3838383931        1.2282489006       -1.4879763944
 C          7.4815088171        1.9814448519       -1.8640584018
 C          7.9391128571        2.9976891699       -1.0424182308
 C          7.2958387147        3.2534114479        0.1573430893
 C          6.2002744883        2.4959838295        0.5287465532
 C          4.3441631929        0.0355055719        2.0695369894
 C          5.5857920777       -0.2658849363        2.6239625633
 C          5.7096099450       -0.5962820975        3.9609117396
 C          4.5875247663       -0.6308228641        4.7720406031
 C          3.3456543910       -0.3315362372        4.2380474192
 C          3.2279913066       -0.0021233791        2.8996864177
 C          2.7095131364        2.8487955726       -0.3478912967
 H         -0.5987100461        3.5272994111       -0.7505297548
 H         -5.3952563458       -0.7359337734       -1.2940141903
 H         -7.7571205470       -1.0934278816       -1.8777243359
 H         -9.3992076310        0.7177810398       -1.6810590979
 H         -8.6986367616        2.9682750667       -0.9246841793
 H         -7.3520995916        5.1362907529       -0.0681434022
 H         -5.6464283691        6.7591644967        0.6965935350
 H         -3.3176482063        6.0604368553        1.0079845896
 H         -2.6147502678        3.7425486332        0.5504606362
 H         -4.9741295581       -1.5637616776        0.8427907188
 H         -6.6507896322       -3.2536931320        1.4520166871
 H         -6.1362312967       -5.6494646202        1.3389172695
 H         -3.8869809587       -6.4155594833        0.6430325378
 H         -1.3327564234       -6.6157078099       -0.1499224141
 H          1.0017485228       -6.2079825235       -0.8698367118
 H          1.8054382902       -3.9201682752       -1.2381075934
 H          0.3298570491       -1.9850331143       -0.8964953375
 H          1.3119433657       -0.1753464148        0.1509083835
 H          2.9690870937       -0.1864966829       -2.3935394967
 H          2.9181727106       -2.1881551004       -3.8186086026
 H          4.0263729958       -4.2634918942       -3.0745077457
 H          5.1642048112       -4.3289486764       -0.8843856620
 H          5.2072040852       -2.3251071923        0.5402834586
 H          6.0323841227        0.4343660206       -2.1319470905
 H          7.9817781916        1.7762498381       -2.7995973998
 H          8.7953737178        3.5878065457       -1.3347123771
 H          7.6497995435        4.0441866246        0.8030363922
 H          5.7058616549        2.6951392884        1.4697301273
 H          6.4660705607       -0.2325409868        1.9970856239
 H          6.6819359564       -0.8257385309        4.3728086218
 H          4.6813481722       -0.8873551847        5.8172341134
 H          2.4672265952       -0.3541721662        4.8669770820
 H          2.2549505090        0.2346881118        2.4936682255
 H          3.6679911309        3.3465859737       -0.3813362874
