  65
 
 O          0.1008569012       -1.1849270322       -5.2427228503
 S          0.0021774753        0.0328492249       -4.4696989777
 O         -0.0960069916        1.2607382637       -5.2265692223
 C         -1.2944346926       -0.0823753942       -3.2386751753
 C         -2.6517795270       -0.1956676937       -3.4338303458
 C         -3.4778830888       -0.2710278352       -2.3229096908
 C         -2.9354087095       -0.2450215370       -1.0364680755
 N         -3.7824416954       -0.3253462778        0.0833944715
 C         -4.6224946650       -1.4324568331        0.2629092561
 C         -4.5733680114       -2.5450387635       -0.5685037609
 C         -5.4144006039       -3.6275973384       -0.3590185605
 C         -6.3085471405       -3.6244350031        0.6930016000
 C         -6.3444991976       -2.5379463481        1.5541096848
 C         -5.5060589371       -1.4567039767        1.3496643081
 O         -5.5772845214       -0.4354912322        2.2664666484
 C         -4.7402002085        0.6391468263        2.0840982807
 C         -4.8304415081        1.6613813621        3.0118761480
 C         -4.0468042936        2.7979905407        2.8805620148
 C         -3.1898794998        2.9101828399        1.8040542672
 C         -3.0952332945        1.8872080196        0.8723266309
 C         -3.8478721374        0.7266650270        1.0073312860
 C         -1.5555199008       -0.1382238953       -0.8551263230
 C         -0.7278903802       -0.0473624992       -1.9649679091
 C          0.7307728339        0.0757703946       -1.9636643873
 C          1.5577601451        0.1501735415       -0.8521868895
 C          2.9375919352        0.2621017785       -1.0310370768
 N          3.7835743754        0.3244632744        0.0907298187
 C          4.6218931553        1.4293388617        0.2907122875
 C          4.5737458482        2.5554241569       -0.5223702468
 C          5.4129815212        3.6352921745       -0.2927190353
 C          6.3041749638        3.6157454885        0.7616367176
 C          6.3388661325        2.5153488636        1.6049584599
 C          5.5023811606        1.4366252249        1.3802330373
 O          5.5723601677        0.4003691090        2.2801059212
 C          4.7374662262       -0.6722836696        2.0774112178
 C          4.8267968896       -1.7099005664        2.9880534623
 C          4.0454726038       -2.8454086945        2.8352542124
 C          3.1918318744       -2.9408091109        1.7545206255
 C          3.0980499677       -1.9023469763        0.8400117475
 C          3.8482398320       -0.7429639896        0.9968796398
 C          3.4806096249        0.3104093830       -2.3165712720
 C          2.6551477111        0.2507562769       -3.4289441610
 C          1.2979774332        0.1313069301       -3.2363791687
 H         -3.0564641170       -0.2137202977       -4.4332514869
 H         -4.5473522478       -0.3452049650       -2.4463153137
 H         -3.8681536815       -2.5718995079       -1.3840412873
 H         -5.3580678685       -4.4743602228       -1.0255884471
 H         -6.9693066778       -4.4607759019        0.8577054469
 H         -7.0153175717       -2.5108042154        2.3983500784
 H         -5.5279211280        1.5491166353        3.8269999386
 H         -4.1225068026        3.5886470640        3.6101865955
 H         -2.5894836233        3.7973433652        1.6740810750
 H         -2.4378020183        2.0033422915        0.0255231097
 H         -1.1494062328       -0.1354127261        0.1440547615
 H          1.1512725634        0.1305990760        0.1466581658
 H          3.8706876749        2.5948053793       -1.3392536244
 H          5.3576427243        4.4929610436       -0.9453051095
 H          6.9636065085        4.4499105553        0.9419391013
 H          7.0072334905        2.4752003535        2.4506247916
 H          5.5218272969       -1.6103075362        3.8069026989
 H          4.1204222543       -3.6481947947        3.5515867426
 H          2.5934193505       -3.8266876550        1.6077046437
 H          2.4431619845       -2.0051692439       -0.0104773890
 H          4.5499496143        0.3890930727       -2.4382808860
 H          3.0602727338        0.2855683350       -4.4277422211
