  141
 
 C         -7.0213259060       -4.5900641748       -2.4318042488
 C         -5.6687412162       -4.0567859027       -2.9441820814
 C         -5.6262635535       -4.1105049964       -4.4843176393
 C         -5.5149226230       -2.6152420628       -2.5083476095
 C         -6.4351022387       -1.6656833866       -2.9317586699
 C         -6.3261064320       -0.3328302904       -2.5797730651
 C         -5.2640306792        0.0819016439       -1.7903645349
 C         -4.3395661322       -0.8380355253       -1.3510644246
 C         -4.4558245048       -2.1942177085       -1.6887089199
 N         -3.5194221766       -3.0915621633       -1.2214337752
 C         -2.4819012891       -2.6291470410       -0.3596967918
 C         -1.2099052767       -2.3702404644       -0.8616629553
 C         -0.2095139214       -1.9625424284       -0.0074335281
 C         -0.4042218190       -1.7934660409        1.3768396968
 C         -1.7206934572       -2.0170369004        1.8424528500
 C         -2.7386160206       -2.4366263460        0.9932800467
 O         -2.1193705927       -1.8571923823        3.1402066134
 C         -1.2715188345       -1.3833606995        4.0965789990
 C         -1.7995202497       -1.1819756192        5.3654373564
 C         -0.9805005361       -0.6920076228        6.3708412930
 C          0.3497817524       -0.3976497655        6.1188554084
 C          0.8664068178       -0.6126315187        4.8456257956
 C          0.0732619786       -1.1186812310        3.8056597119
 B          0.6557332917       -1.3787569082        2.4166299188
 C          2.1788195710       -1.1288105588        2.3293806933
 C          3.0113015928       -1.3843665511        1.2286755901
 C          4.3432668607       -1.0081585815        1.1707840835
 C          5.1747597443       -1.1607309732       -0.1080990699
 C          5.2359878346        0.1845853288       -0.8067381173
 C          6.3482562658        0.5847596229       -1.5427453036
 C          6.3545181927        1.8179067726       -2.1699289003
 C          5.2417391548        2.6527488538       -2.1018814749
 C          4.0704488384        2.2458260710       -1.4307593406
 C          4.1275524461        1.0126253046       -0.7741862869
 B          2.8660005903        3.2049934636       -1.4431807338
 C          1.4098986398        3.0545283240       -0.9739449956
 C          0.7676489856        1.8641232850       -0.5855587755
 C         -0.5241720215        1.8334920526       -0.1143614248
 C         -1.2462429049        3.0205797508       -0.0009098680
 N         -2.5614681907        3.0057208939        0.5367097751
 C         -3.6333820619        3.3057804006       -0.2816193176
 C         -3.4186575077        3.5564097691       -1.6457625963
 C         -4.4623458106        3.8963734382       -2.4768953332
 C         -5.7501438553        3.9819578909       -1.9691001300
 C         -5.9749099160        3.6892095553       -0.6362856022
 C         -4.9429065762        3.3383114065        0.2249909069
 C         -5.2596616041        2.9803296585        1.6606113933
 C         -5.9346124190        4.1891629528        2.3392046572
 C         -6.2126166004        1.7685932586        1.6653773314
 C         -4.0123029579        2.6290489943        2.4426230230
 C         -4.1224667128        2.2710628692        3.7798509457
 C         -3.0146667103        1.9917497391        4.5578565397
 C         -1.7489511175        2.0907799645        4.0007745898
 C         -1.6086418541        2.4392357169        2.6770283326
 C         -2.7309102023        2.6854901540        1.8710362095
 C         -0.6715011269        4.2177855686       -0.4222200400
 C          0.6229907394        4.2287385592       -0.9270045464
 O          1.0496552775        5.4568518656       -1.3542201344
 C          2.2666932914        5.6283039508       -1.9504120151
 C          2.5525502671        6.8808096170       -2.4779905956
 C          3.7796777062        7.0930700486       -3.0896798511
 C          4.7216203869        6.0797304886       -3.1708723735
 C          4.4290205048        4.8329470829       -2.6286898047
 C          3.1929100501        4.5794173966       -2.0159398747
 O          5.3856093584        3.8664855675       -2.7221130586
 C          6.5143478512       -1.7889306500        0.2221327445
 C          7.6182256738       -1.2483222353        0.8504175914
 C          8.7255135427       -2.0542359415        1.0837134790
 C          8.7354871594       -3.3829999242        0.6903759094
 C          7.6526527421       -3.9229798105        0.0155674364
 C          6.5517579901       -3.1188385313       -0.2283419212
 C          5.3565556778       -3.3745127610       -1.0150189966
 C          4.9780506714       -4.4854447367       -1.7514318232
 C          3.8331598499       -4.4093208042       -2.5280925675
 C          3.0965216803       -3.2362711486       -2.5879455470
 C          3.4663427504       -2.1243588649       -1.8421244664
 C          4.5815060579       -2.2069698539       -1.0338681484
 C          4.8974469189       -0.3809869117        2.2844167390
 C          4.1417589074       -0.1811219438        3.4220082142
 C          2.7999771690       -0.5480153968        3.4536342616
 O          2.1738749884       -0.2936715627        4.6440059954
 C         -3.5557517963       -4.4284832964       -1.5588266923
 C         -2.5772660609       -5.2962200183       -1.0517406330
 C         -2.5817656820       -6.6335747802       -1.3777969807
 C         -3.5672615540       -7.1365274326       -2.2139265601
 C         -4.5429264200       -6.2877535029       -2.7043281676
 C         -4.5645082684       -4.9347055743       -2.3941603628
 H         -7.0474291435       -4.5535080455       -1.3442311691
 H         -7.1729888943       -5.6188382767       -2.7446724601
 H         -7.8417799105       -3.9914710797       -2.8163363600
 H         -5.7445867425       -5.1301109653       -4.8385593087
 H         -6.4204106917       -3.5068371256       -4.9132510829
 H         -4.6718843104       -3.7294324083       -4.8431086197
 H         -7.2610149050       -1.9689871797       -3.5559421236
 H         -7.0591955850        0.3797308580       -2.9244843198
 H         -5.1571892042        1.1205851931       -1.5214886868
 H         -3.5089296913       -0.5187753612       -0.7420552037
 H         -1.0190374974       -2.4948309556       -1.9173808968
 H          0.7642572662       -1.7579006253       -0.4187532127
 H         -3.7230583174       -2.6133962635        1.3993714278
 H         -2.8381712299       -1.4084807787        5.5492089431
 H         -1.3829764786       -0.5342299608        7.3599479442
 H          0.9940264899       -0.0081470688        6.8923190226
 H          2.5780165610       -1.8981435702        0.3876995688
 H          7.2149371767       -0.0554638469       -1.6151214150
 H          7.2236563291        2.1551274756       -2.7155395563
 H          3.2707351417        0.7120358531       -0.1939213540
 H          1.3063554145        0.9351172887       -0.6660474977
 H         -0.9769994584        0.8976799870        0.1786634432
 H         -2.4219794792        3.4762768218       -2.0482273197
 H         -4.2714516433        4.0904723088       -3.5213762058
 H         -6.5736880312        4.2569583456       -2.6098779963
 H         -6.9856261862        3.7317757563       -0.2620039144
 H         -6.1883022541        3.9598411420        3.3697909226
 H         -5.2600802655        5.0435159192        2.3337565495
 H         -6.8455474365        4.4659010609        1.8169588201
 H         -6.4919330353        1.5039081003        2.6806370895
 H         -5.7259604064        0.9100902411        1.2069351651
 H         -7.1188709006        1.9876179373        1.1088330310
 H         -5.0989720628        2.2127016003        4.2344898455
 H         -3.1323336114        1.7122016212        5.5928723479
 H         -0.8724789378        1.8953609489        4.5990507387
 H         -0.6200235858        2.5276922722        2.2564300580
 H         -1.2223291742        5.1445105239       -0.3647547940
 H          1.8194152891        7.6695807462       -2.4089385594
 H          4.0050014683        8.0629821646       -3.5062566606
 H          5.6787327662        6.2426198929       -3.6420166220
 H          7.6505865596       -0.2054433661        1.1309623500
 H          9.5932233196       -1.6346038067        1.5724092020
 H          9.6042640276       -3.9937233881        0.8902680250
 H          7.6731990477       -4.9475983916       -0.3255302651
 H          5.5706000712       -5.3882037252       -1.7321190354
 H          3.5226133013       -5.2653079438       -3.1100370856
 H          2.2272268796       -3.1840988140       -3.2272500145
 H          2.9027368364       -1.2050501921       -1.9136294406
 H          5.9210744876       -0.0492804431        2.2783061103
 H          4.5744192970        0.2757353475        4.3000099432
 H         -1.8138759662       -4.9076969386       -0.3966022233
 H         -1.8178581035       -7.2836358471       -0.9786797067
 H         -3.5788801233       -8.1831930360       -2.4769097116
 H         -5.3075619175       -6.6980428609       -3.3453091857
