  166
 
 N          9.9278804443        6.2366286163       -1.8279638909
 C          9.3404412554        5.4383861479       -1.2332451466
 C          8.6238309540        4.4599144023       -0.5569151752
 C          7.4870204769        3.8969934665       -1.1308827935
 C          6.7211504943        2.9584316474       -0.4712121192
 N          5.5557797739        2.4597284192       -1.0513149943
 C          5.4862215280        1.8166823987       -2.2776409174
 C          6.4456433388        1.7062225029       -3.2727374211
 C          6.1304835220        0.9627715590       -4.3962232498
 C          4.8911809749        0.3429792984       -4.5313221589
 C          3.9392601909        0.4294671678       -3.5316274787
 C          4.2385886840        1.1565657834       -2.3896242461
 C          3.5224744975        1.4212383085       -1.1721257683
 C          2.2992550099        1.0122831711       -0.6774109931
 C          1.8696210105        1.4854284934        0.5627261837
 C          0.5877257113        1.0592447930        1.1261035120
 C          0.3957887576        0.9793233014        2.5049420164
 C         -0.8316210158        0.6378875278        3.0417813135
 C         -1.9187146829        0.3484405941        2.2276988957
 C         -3.3199637789        0.0018516066        2.7158379906
 C         -4.2609523208        0.8957919603        1.9209558642
 C         -5.3067867286        0.4213262559        1.1418858093
 C         -6.1099295402        1.2893428728        0.4255361085
 C         -5.8952480525        2.6603092291        0.4863621096
 N         -6.7092339037        3.5355208893       -0.2448633377
 C         -6.2677260820        4.5486786738       -1.0711493232
 C         -4.9713167484        4.9115568949       -1.4099681545
 C         -4.8062000124        5.9648162191       -2.2894695450
 C         -5.8983015036        6.6390861578       -2.8304562373
 C         -7.1914418949        6.2646125775       -2.5181277990
 C         -7.3826523675        5.2098296716       -1.6372816418
 C         -8.5518800450        4.5538910847       -1.1186142639
 C         -9.9140326807        4.7534627780       -1.2910591138
 C        -10.7941562692        3.9336894717       -0.6103984959
 C        -10.3298391998        2.9371130926        0.2447099163
 C         -8.9780837387        2.7202337748        0.4336128543
 C         -8.0888166431        3.5240524815       -0.2666629953
 C         -4.8615506605        3.1499838519        1.2810632731
 C         -4.0563013952        2.2739789537        1.9776358985
 C         -3.5565712710       -1.4918487891        2.4451277324
 C         -2.5673553992       -2.3644953549        3.2198633365
 C         -2.4228339682       -1.9215227883        4.6836237153
 C         -3.5552300154       -0.9847909979        5.0855350438
 C         -3.5862827586        0.2764763389        4.2175386955
 C         -1.7147153244        0.3884436786        0.8476640008
 C         -0.4972322626        0.7389335909        0.3073014077
 C          2.6659743687        2.4147738153        1.2558462201
 C          3.8985630148        2.8148961695        0.7912474153
 C          4.3597048246        2.2618086926       -0.3976401814
 C          7.1347255854        2.5092425329        0.8567585721
 N          6.4127103014        1.5163298972        1.5184556821
 C          5.8229962972        1.6574910657        2.7644718248
 C          5.9774536210        2.6639696150        3.7063711647
 C          5.2142729719        2.5951188468        4.8579535026
 C          4.3119820899        1.5556470063        5.0696862031
 C          4.1373418294        0.5609378483        4.1249500386
 C          4.8914579146        0.6096825964        2.9626097975
 C          4.9347514135       -0.2069001995        1.7816838448
 C          4.2239557897       -1.3153472763        1.3619575843
 C          4.4936388901       -1.8563180066        0.1075566692
 C          3.6611598728       -2.9459792092       -0.4086506770
 C          3.2885960605       -4.0234444544        0.3882304380
 C          2.4496793821       -5.0085069410       -0.0961364634
 C          1.9272938412       -4.9491678421       -1.3858533017
 C          0.8880543948       -5.9384417597       -1.8968012500
 C         -0.4608746869       -5.2538453243       -1.6965458001
 C         -0.7498827151       -4.7010804238       -0.4506361216
 C         -1.9625853044       -4.1000121829       -0.1898166241
 C         -2.9410745420       -4.0439151727       -1.1768877772
 N         -4.1906324458       -3.4698756639       -0.8982977803
 C         -4.9911147101       -3.7876635257        0.1808993522
 C         -4.7762641693       -4.6982128046        1.2062003747
 C         -5.7517100024       -4.8189488934        2.1771165474
 C         -6.9226643841       -4.0651357477        2.1311448616
 C         -7.1585427934       -3.1834977928        1.0950896610
 C         -6.1920676786       -3.0442774242        0.1074420690
 C         -6.1036644883       -2.2433954790       -1.0819047662
 C         -6.9546489387       -1.3227581679       -1.6787868056
 C         -6.5329777704       -0.6789059045       -2.8251894385
 C         -5.2780738924       -0.9393935494       -3.3714950698
 C         -4.4217078206       -1.8647784426       -2.8064164419
 C         -4.8485119152       -2.5311583762       -1.6663494194
 C         -2.6634737777       -4.5791881767       -2.4284704519
 C         -1.4371013183       -5.1690793799       -2.6814896169
 C          1.1508518961       -6.3235026674       -3.3624824944
 C          2.4912556849       -7.0389771262       -3.5042014026
 C          2.4716456720       -8.3391738487       -2.7087053488
 C          2.1642982427       -8.0462271294       -1.2446721533
 C          0.8594239973       -7.2642258274       -1.1070885614
 C          2.3028491250       -3.8651256646       -2.1762136053
 C          3.1675549945       -2.8963526241       -1.7098741355
 C          5.5364467722       -1.3319574938       -0.6706395970
 C          6.2669101556       -0.2375418570       -0.2621186024
 C          5.9086866942        0.3742086238        0.9336887761
 C          8.2549594866        3.0655694914        1.4358660301
 C          9.0305786631        4.0197753638        0.7805500660
 C         10.1781779053        4.5228844593        1.3779993869
 N         11.1174258346        4.9389710708        1.9081608202
 H          7.1673749999        4.2530771313       -2.1003627315
 H          7.4125034807        2.1759441809       -3.1789543890
 H          6.8608272933        0.8647109909       -5.1848467596
 H          4.6768486390       -0.2185408662       -5.4283713282
 H          2.9799375665       -0.0555481968       -3.6346987874
 H          1.6980378489        0.3125964836       -1.2371326526
 H          1.2233865466        1.1780037163        3.1704750396
 H         -0.9221147068        0.6082264510        4.1164849962
 H         -5.5052885802       -0.6348323874        1.0659823531
 H         -6.8906088142        0.8988512194       -0.2081270847
 H         -4.1192705332        4.3825256407       -1.0107832629
 H         -3.8076902917        6.2692467300       -2.5658041737
 H         -5.7275537740        7.4595134158       -3.5111449730
 H         -8.0373241280        6.7765094215       -2.9511768941
 H        -10.2745722828        5.5364921737       -1.9406295322
 H        -11.8580741367        4.0707005135       -0.7326865664
 H        -11.0422398270        2.3231051027        0.7755171505
 H         -8.6272999783        1.9591273874        1.1138834185
 H         -4.7022120370        4.2152063923        1.3557754363
 H         -3.2490905171        2.6644331981        2.5797561038
 H         -4.5743653386       -1.7559033530        2.7352676723
 H         -3.4497370042       -1.6927561580        1.3780995157
 H         -2.9209847110       -3.3970212536        3.1755802451
 H         -1.5906755315       -2.3237773870        2.7320972192
 H         -2.4219760142       -2.7927736236        5.3409828469
 H         -1.4696258588       -1.4116850523        4.8245399785
 H         -3.4419347409       -0.6945300779        6.1322184041
 H         -4.5042491485       -1.5170669506        4.9990835165
 H         -2.8703112797        1.0055208592        4.5955242936
 H         -4.5750866419        0.7318042566        4.3144686098
 H         -2.5374509194        0.1656162629        0.1823767531
 H         -0.3981551807        0.8006992939       -0.7659782335
 H          2.2931010667        2.8472878507        2.1712304525
 H          4.4826156486        3.5446719692        1.3318137905
 H          6.6617784852        3.4833416697        3.5493536640
 H          5.3197231250        3.3657058604        5.6064170661
 H          3.7364580216        1.5349120426        5.9832029791
 H          3.4254094877       -0.2358954744        4.2798827624
 H          3.4406858970       -1.7302593105        1.9780457648
 H          3.6726973562       -4.0994016148        1.3954443539
 H          2.1983478947       -5.8241827929        0.5635421276
 H         -0.0079815372       -4.7261509962        0.3326068453
 H         -2.1517262667       -3.6630425059        0.7776075993
 H         -3.8815767056       -5.3010595534        1.2399312834
 H         -5.6050357904       -5.5160158954        2.9889486300
 H         -7.6583590114       -4.1843585105        2.9124425514
 H         -8.0739485204       -2.6127993188        1.0487316398
 H         -7.9268670103       -1.1215586411       -1.2530887412
 H         -7.1777355489        0.0430328609       -3.3041430774
 H         -4.9691825289       -0.4069938025       -4.2588101930
 H         -3.4484020758       -2.0555906115       -3.2327909975
 H         -3.4178631047       -4.5505842024       -3.2008290204
 H         -1.2641714563       -5.5743560677       -3.6652839580
 H          1.1239313883       -5.4485215920       -4.0116463426
 H          0.3657140888       -7.0071952215       -3.6926025365
 H          3.2939727427       -6.3951351355       -3.1381785976
 H          2.6830523275       -7.2501796539       -4.5584302518
 H          3.4344293450       -8.8468542097       -2.7921339079
 H          1.7065290925       -9.0033393877       -3.1186521946
 H          2.0838225504       -8.9815438201       -0.6860241247
 H          2.9896427894       -7.4720080531       -0.8208871485
 H          0.0392371838       -7.8678665320       -1.5054359557
 H          0.6339598380       -7.0833308709       -0.0554447354
 H          1.9052567540       -3.7581282865       -3.1735987205
 H          3.4389820227       -2.0654536508       -2.3442989028
 H          5.7795261873       -1.8089825945       -1.6081315682
 H          7.0851424808        0.1365821162       -0.8590699438
 H          8.5787444229        2.7139873458        2.4055965560
