  74
 
 C         -5.7612403259        2.5287612179        2.3547132197
 C         -5.5321761706        1.9906558002        0.9272834097
 C         -6.5087326894        2.6684996446       -0.0558570783
 C         -5.7977121744        0.5027731879        0.9160552933
 C         -7.0480337811        0.0232878781        1.2827909941
 C         -7.3526183049       -1.3257226203        1.2495160438
 C         -6.3961566435       -2.2354013022        0.8167850038
 C         -5.1484571842       -1.7918758184        0.4462862769
 C         -4.8207065649       -0.4259873236        0.5115528839
 N         -3.5560052915       -0.0155738583        0.1527367338
 C         -2.6046467139       -0.9761869590       -0.2737525852
 C         -2.0242815519       -1.8691004584        0.6529691343
 C         -1.0600790152       -2.7478624082        0.2421832130
 C         -0.6681804271       -2.7863470719       -1.1084316063
 S          0.7951629501       -3.6419533549       -1.5599952430
 O          0.9587763865       -4.8310494486       -0.7350372206
 O          0.8099606831       -3.8461140744       -3.0025200077
 C          2.0448570477       -2.4565482971       -1.1221119031
 C          2.7137829007       -2.5848712818        0.0985726351
 C          3.5492715875       -1.5794464901        0.5555588594
 C          3.6732258423       -0.4320415034       -0.2201116951
 C          3.0016350874       -0.3039291258       -1.4723593332
 C          2.1759064329       -1.3232613668       -1.9172531672
 C          3.3878694699        0.9660717459       -2.0141068859
 C          3.0492720874        1.6549208394       -3.1736329545
 C          3.5903448076        2.9155773851       -3.3779781383
 C          4.4435516437        3.4939405633       -2.4444798623
 C          4.7976575660        2.8237507998       -1.2792064808
 C          4.2804248368        1.5525447885       -1.0802720964
 N          4.4427050974        0.6967541204       -0.0071347926
 C          5.2491011869        0.9373000080        1.1091265733
 C          6.5699563111        1.3585919212        0.9431521043
 C          7.3614826098        1.5997791838        2.0488465849
 C          6.8530419550        1.4237605742        3.3275954615
 C          5.5414188595        1.0032160831        3.4949271222
 C          4.7396490226        0.7608288118        2.3969475231
 C         -1.2590816673       -1.9079530197       -2.0366552590
 C         -2.2117874468       -1.0170293411       -1.6279798329
 C         -3.1893716868        1.3123786575        0.1732908288
 C         -1.8626294866        1.6695779456       -0.1307945985
 C         -1.4748616084        2.9882655505       -0.1523779324
 C         -2.3986583334        3.9850076887        0.1373581745
 C         -3.6952524034        3.6388280581        0.4747476616
 C         -4.1162268909        2.3166972116        0.5117578093
 H         -5.0862184148        2.0353858930        3.0511300062
 H         -5.5782132818        3.5978795947        2.3963928054
 H         -6.7820125283        2.3447580680        2.6748507667
 H         -6.3418641141        2.2938524491       -1.0638769796
 H         -6.3636295254        3.7443473989       -0.0593144327
 H         -7.5378213622        2.4625933531        0.2218062564
 H         -7.8115071513        0.7162889630        1.5986416830
 H         -8.3332749304       -1.6657667918        1.5444351876
 H         -6.6272915182       -3.2882326435        0.7637568280
 H         -4.4100729306       -2.4934980286        0.0930512970
 H         -2.3335804209       -1.8289407241        1.6869689804
 H         -0.5827174864       -3.4308822344        0.9272277229
 H          2.5757825681       -3.4979945670        0.6552335137
 H          4.0945342636       -1.6972722821        1.4789291950
 H          1.6527542408       -1.2740754750       -2.8584531197
 H          2.3761660870        1.2143958290       -3.8930371527
 H          3.3386867179        3.4631080621       -4.2745034903
 H          4.8368084028        4.4832383083       -2.6233830681
 H          5.4447264077        3.2880278228       -0.5513863114
 H          6.9713280064        1.4657098976       -0.0532744239
 H          8.3847553185        1.9171593512        1.9129667529
 H          7.4758809408        1.6119339266        4.1887535477
 H          5.1391015084        0.8709043594        4.4883741649
 H          3.7109261600        0.4588979602        2.5230740777
 H         -0.9470879925       -1.9773658054       -3.0668121374
 H         -2.6827197782       -0.3466684445       -2.3318342170
 H         -1.1426448795        0.8952214174       -0.3415599294
 H         -0.4530240833        3.2406656079       -0.3916439979
 H         -2.1051160273        5.0230350889        0.1146834620
 H         -4.3917578695        4.4255043763        0.7177172102
