  137
 
 C         12.6061733452       -4.9092989274        1.8458900841
 C         12.9755619228       -4.0314976067        0.6415876151
 C         14.3605883937       -3.4312055726        0.8984427737
 C         13.0595197807       -4.8949079875       -0.6252181991
 C         11.9035766721       -2.9688976206        0.4507473801
 C         10.5859589642       -3.3751072596        0.1990388917
 C          9.5500079695       -2.4844470647        0.0057443969
 C          9.8385263869       -1.1286254870        0.0550441699
 C         11.1512090941       -0.6934306027        0.3377662072
 C         12.1740673009       -1.6113968525        0.5287129973
 C         11.1027004486        0.7429249941        0.3797733542
 C         12.0690659360        1.7160227374        0.5904812075
 C         11.7175974319        3.0562836651        0.5431364326
 C         12.7217325659        4.1761408704        0.7718574469
 C         12.8025314875        5.0462913292       -0.4905199140
 C         14.1275987835        3.6526422064        1.0787075689
 C         12.2617698914        5.0287817214        1.9629811726
 C         10.3857716740        3.3890278273        0.2602972382
 C          9.4048661608        2.4424015900        0.0465502177
 C          9.7617773528        1.1044573373        0.1269749267
 N          9.0052799645       -0.0341398566       -0.0694482791
 C          7.6385658863       -0.0741734694       -0.3458932845
 C          6.7347865931        0.6822710439        0.4082253806
 C          5.3901799432        0.6290327365        0.1434136428
 C          4.8683283137       -0.1667477642       -0.9003795869
 C          3.4612702771       -0.2195529097       -1.1758148152
 C          2.9749164563       -0.5720866121       -2.4666460265
 C          1.6453070212       -0.6280864628       -2.7574323167
 C          0.6998744076       -0.3475391944       -1.7434273907
 C          1.1736853427        0.0049442814       -0.4380741651
 C          2.5005738973        0.0772595866       -0.1663624090
 C          0.0007742327        0.2453643322        0.4885603036
 C          0.0016169197        1.6820004682        1.0209026613
 C          0.0007474625       -0.7542114708        1.6499868963
 C         -1.1729450935        0.0060445435       -0.4373639041
 C         -2.4993988398        0.0789177556       -0.1645859217
 C         -3.4617294761       -0.2158069892       -1.1737212173
 C         -4.8679705651       -0.1631150906       -0.8972553605
 C         -5.3886570789        0.6225095140        0.1553781953
 C         -6.7327745383        0.6747364250        0.4217696921
 C         -7.6386505731       -0.0718913878       -0.3399077264
 N         -9.0048745947       -0.0328768915       -0.0620528441
 C         -9.8406516905       -1.1272281866        0.0463235450
 C         -9.5555085408       -2.4828761887       -0.0236473845
 C        -10.5936258545       -3.3738832577        0.1559108850
 C        -11.9102299706       -2.9684185909        0.4139948139
 C        -12.9848675953       -4.0312452638        0.5877893861
 C        -13.0709020525       -4.8739234670       -0.6927793413
 C        -12.6177207197       -4.9292703970        1.7777745796
 C        -14.3683964946       -3.4317073389        0.8542608505
 C        -12.1772336193       -1.6116186104        0.5135266552
 C        -11.1521466433       -0.6933444352        0.3365866087
 C        -11.1001550921        0.7420671288        0.4010280093
 C        -12.0640056339        1.7139364934        0.6282046213
 C        -11.7094903561        3.0539859458        0.6015650892
 C        -12.7105090513        4.1724411982        0.8498755416
 C        -14.1171511163        3.6474914561        1.1506034821
 C        -12.7912056874        5.0630564146       -0.3981471271
 C        -12.2464548166        5.0046181424        2.0538312448
 C        -10.3773636455        3.3880412238        0.3217432249
 C         -9.3989564357        2.4426189481        0.0918458847
 C         -9.7586205626        1.1043465784        0.1524522145
 C         -7.1463839536       -0.8612278458       -1.3854551800
 C         -5.8035040344       -0.8977167031       -1.6597869256
 C         -2.9757682590       -0.5665415652       -2.4657284311
 C         -1.6465630284       -0.6242673287       -2.7570449556
 C         -0.7000398670       -0.3463855942       -1.7431846414
 C          5.8013936108       -0.9110640844       -1.6556533277
 C          7.1446810036       -0.8742180395       -1.3822655563
 H         13.3738141424       -5.6627803826        2.0099467180
 H         11.6586511118       -5.4177281382        1.6913630137
 H         12.5229230519       -4.2996144096        2.7432818832
 H         14.6788046613       -2.8106092923        0.0639045817
 H         15.0866878659       -4.2331515021        1.0165510125
 H         14.3670704718       -2.8369000243        1.8092267390
 H         13.3039248198       -4.2756783390       -1.4859131066
 H         13.8337576195       -5.6510970430       -0.5127521716
 H         12.1186704179       -5.3997018232       -0.8255019790
 H         10.3563548886       -4.4288639115        0.1570392494
 H          8.5449457444       -2.8397346305       -0.1637828476
 H         13.1641146253       -1.2439785388        0.7413005635
 H         13.0821342867        1.4040704230        0.7821543337
 H         13.1035663376        4.4423412064       -1.3440794494
 H         13.5346805638        5.8393330282       -0.3528392882
 H         11.8444509105        5.5044547318       -0.7193606903
 H         14.7992275563        4.4930187459        1.2429834258
 H         14.1295213001        3.0407955627        1.9778728983
 H         14.5182304120        3.0693563187        0.2480838652
 H         11.2935863647        5.4844125364        1.7754519493
 H         12.9799319244        5.8233833299        2.1546932691
 H         12.1812872311        4.4129719186        2.8564597361
 H         10.1021537467        4.4285874930        0.1988391155
 H          8.3951808035        2.7417388092       -0.1902523787
 H          7.1049569853        1.2910931005        1.2201693967
 H          4.7217536658        1.2359653683        0.7343047105
 H          3.6892844525       -0.7576225029       -3.2547442991
 H          1.3068462561       -0.8759379641       -3.7527865983
 H          2.8380073150        0.3139622737        0.8315371278
 H          0.8853623426        1.8597409996        1.6295600301
 H          0.0017998747        2.3885875760        0.1934494725
 H         -0.8816816090        1.8606528347        1.6299311731
 H          0.0002136217       -1.7728764241        1.2677724324
 H         -0.8828896480       -0.6156620711        2.2689184056
 H          0.8848787244       -0.6163667727        2.2683685880
 H         -2.8353555605        0.3148829616        0.8338990492
 H         -4.7193974043        1.2221360563        0.7526321446
 H         -7.1011280129        1.2747429145        1.2410553225
 H         -8.5513658215       -2.8381817738       -0.1984088446
 H        -10.3665887637       -4.4274096732        0.0975165398
 H        -12.1313582557       -5.3779173904       -0.9010561524
 H        -13.8471498798       -5.6297744232       -0.5925838899
 H        -13.3135432453       -4.2402872732       -1.5434302081
 H        -12.5331674199       -4.3343858916        2.6849242198
 H        -13.3871532479       -5.6834997685        1.9295255390
 H        -11.6713821414       -5.4373693839        1.6151473270
 H        -14.6850414845       -2.7970183730        0.0297894593
 H        -15.0964919804       -4.2336379746        0.9594955814
 H        -14.3734284665       -2.8520817151        1.7744657793
 H        -13.1662870573       -1.2451272866        0.7322639114
 H        -13.0775555832        1.4013536319        0.8162783273
 H        -14.7864718173        4.4867490126        1.3293885258
 H        -14.5105236609        3.0785093883        0.3113971597
 H        -14.1191260756        3.0213587256        2.0398751207
 H        -11.8323858112        5.5225519825       -0.6211314322
 H        -13.5211833763        5.8555403858       -0.2464546095
 H        -13.0950918482        4.4737153960       -1.2608577658
 H        -12.9624336268        5.7976465369        2.2596882755
 H        -11.2775522252        5.4610138264        1.8719464857
 H        -12.1658082026        4.3742412374        2.9370791725
 H        -10.0914515639        4.4277730695        0.2759029088
 H         -8.3891070984        2.7435133867       -0.1422071152
 H         -7.8398931518       -1.4250679068       -1.9920560380
 H         -5.4566835770       -1.5293045029       -2.4628221909
 H         -3.6903020987       -0.7496631024       -3.2541319219
 H         -1.3089527181       -0.8712458681       -3.7529019075
 H          5.4524155942       -1.5505536044       -2.4515573069
 H          7.8369687615       -1.4463998877       -1.9824374735
