  75
 
 C          4.4342096454        0.3797680221       -1.9701300950
 C          4.4440013272        0.9431257015       -0.5323919427
 C          5.6285846430        1.9016165383       -0.4061293876
 C          4.5353689298       -0.2205139911        0.4340115481
 C          5.6855630110       -0.5885726071        1.1162426762
 C          5.7018354801       -1.6990814820        1.9434609965
 C          4.5544772903       -2.4543862816        2.1149725476
 C          3.3921041589       -2.0916635759        1.4632798230
 C          3.3820432888       -0.9887797022        0.6137646065
 N          2.1836233148       -0.5851375465        0.0026547935
 C          1.2989819689       -1.5281540292       -0.4755096913
 C          1.8316352376       -2.7332089089       -1.0259164326
 C          0.9849269453       -3.6349433984       -1.5892905015
 C         -0.4094226281       -3.3833297283       -1.6013380473
 C         -1.3511848031       -4.2629934879       -2.1603518577
 C         -2.6868970877       -3.9593272525       -2.1266834578
 C         -3.1265698407       -2.7773508292       -1.5186969285
 C         -2.2326959805       -1.8943190244       -0.9622280111
 N         -2.6985428945       -0.7217479031       -0.3084161927
 C         -3.1211216713       -0.8186504764        1.0066524851
 C         -3.0641730675       -2.0507283369        1.6659472708
 C         -3.5043303995       -2.1845539783        2.9661485695
 C         -4.0110318405       -1.0865115545        3.6378158946
 C         -4.0521789809        0.1372518039        2.9946634232
 C         -3.6098680310        0.3014966820        1.6890831960
 C         -3.6679783743        1.6758204963        1.0482795191
 C         -5.1405799818        2.1216846644        0.9641715873
 C         -2.8669047471        2.6585279806        1.9226253821
 C         -3.0897771015        1.6676210195       -0.3551860287
 C         -3.0268173790        2.8516857724       -1.0773066365
 C         -2.5364226827        2.9006137013       -2.3696365839
 C         -2.1040359479        1.7333049872       -2.9729613176
 C         -2.1627895987        0.5419538081       -2.2815681211
 C         -2.6425799662        0.4923633477       -0.9697288621
 C         -0.8417369720       -2.1691753094       -1.0066779299
 N          0.0115524360       -1.2763473273       -0.4728085862
 C          1.9806926237        0.8077968595       -0.0702418117
 C          0.7227773286        1.3769819067        0.0783206625
 C          0.5692366955        2.7487138276        0.0014051962
 C          1.6729555332        3.5589491067       -0.1857594059
 C          2.9292245139        2.9923319395       -0.3221867005
 C          3.1049773536        1.6178747750       -0.2847063809
 H          4.3462736976        1.1948061211       -2.6853632145
 H          3.5973506032       -0.2975316958       -2.1227066024
 H          5.3580401047       -0.1613964722       -2.1648670761
 H          5.5441231772        2.7019511973       -1.1362317105
 H          5.6770016696        2.3326320780        0.5913140996
 H          6.5571370430        1.3758287269       -0.6128548266
 H          6.5900412176       -0.0136358797        1.0046033817
 H          6.6116157627       -1.9716745685        2.4570136759
 H          4.5574772910       -3.3150883161        2.7670368048
 H          2.4814882673       -2.6541169287        1.6136093299
 H          2.8987961699       -2.8938423886       -1.0222471267
 H          1.3608647625       -4.5409930984       -2.0441395165
 H         -1.0033350663       -5.1810467511       -2.6118550963
 H         -3.4118948093       -4.6320356663       -2.5592319841
 H         -4.1829127909       -2.5546147410       -1.4739255742
 H         -2.6664516394       -2.9118648143        1.1503829307
 H         -3.4507608675       -3.1483457887        3.4517570590
 H         -4.3659812480       -1.1789956639        4.6533906808
 H         -4.4445575774        0.9870024260        3.5326645897
 H         -5.5999910633        2.1248086803        1.9490495453
 H         -5.6997232648        1.4387131704        0.3266062596
 H         -5.2177168569        3.1217975463        0.5461045791
 H         -1.8405660191        2.3109870396        2.0254383371
 H         -3.3022986177        2.7383276979        2.9147244954
 H         -2.8541451467        3.6512481742        1.4814437388
 H         -3.3748524723        3.7685754209       -0.6249415569
 H         -2.4988801303        3.8399809300       -2.9007598974
 H         -1.7247989332        1.7467690445       -3.9846082850
 H         -1.8332063427       -0.3683093624       -2.7596802656
 H         -0.1283500295        0.7384032670        0.2338873391
 H         -0.4167888522        3.1765783526        0.0928015314
 H          1.5610284171        4.6321101805       -0.2320917288
 H          3.7748407949        3.6429658732       -0.4739721830
