  99
 
 C          6.4688344118        1.3367505922        1.7721597520
 C          5.1025095289        1.3561700423        1.9675940899
 C          4.3446295213        0.2189266026        1.7363384944
 C          4.9375516392       -0.9597292600        1.3019699734
 C          6.3220482367       -0.9611974901        1.0840312047
 C          7.0751410849        0.1732938075        1.3257211464
 O          6.9923054663       -2.0597958133        0.6135844022
 C          6.2492613926       -3.1731628064        0.3176438632
 C          6.9258125385       -4.2637622089       -0.1972020150
 C          6.2453047652       -5.4373347222       -0.4851490300
 C          4.8887469620       -5.5172526914       -0.2385342381
 C          4.2045037900       -4.4257237185        0.2721456511
 C          4.8661528021       -3.2321740281        0.5362939177
 N          4.2011822073       -2.1229227776        1.0577880258
 C          2.7880193661       -2.0610072471        1.0289957024
 C          2.0583711898       -1.8328204495        2.1918689656
 C          0.6931599400       -1.6211930139        2.1289314501
 C          0.0407899042       -1.6159980640        0.9008479362
 C         -1.3450490624       -1.1511820219        0.7384595860
 N         -2.3827614269       -1.8232785908        1.2265360901
 C         -3.6326390588       -1.4125649401        0.9772567498
 C         -4.7433840220       -2.0839005474        1.4834043137
 C         -6.0296871449       -1.6614818823        1.1848482968
 C         -6.2269546457       -0.5646701837        0.3599985153
 N         -7.5455769810       -0.1418993106        0.0467168562
 C         -8.0373826807        1.0576652513        0.5447830872
 C         -7.2813292483        1.8830451172        1.3710363008
 C         -7.8030806719        3.0739820911        1.8477378028
 C         -9.0884723673        3.4586967771        1.5159822330
 C         -9.8632950839        2.6385031917        0.7100986336
 C         -9.3492301629        1.4474114192        0.2309874512
 O        -10.1764989661        0.6756155863       -0.5432297368
 C         -9.6751731766       -0.5060980170       -1.0239424935
 C        -10.5143900335       -1.2756236122       -1.8088119361
 C        -10.0651773370       -2.4730738975       -2.3444608564
 C         -8.7694254678       -2.8877910169       -2.1004556155
 C         -7.9240505068       -2.1232306109       -1.3140749451
 C         -8.3648450426       -0.9299568894       -0.7505915955
 C         -5.1394216824        0.1345508875       -0.1620776635
 C         -3.8398988342       -0.2543952136        0.1408985963
 N         -2.7757689075        0.4278405907       -0.3068052121
 C         -1.5467127122        0.0189079998       -0.0120231334
 C         -0.3513041346        0.7969803778       -0.3745605642
 C          0.0954053697        0.9285290720       -1.6844975694
 C          1.3453351339        1.4609182690       -1.9442628576
 C          2.1591339723        1.8852545138       -0.8982808795
 N          3.4953740518        2.2869512471       -1.1321482917
 C          4.4498000170        1.3318158695       -1.4955694106
 C          4.1047812408        0.0376086831       -1.8633714043
 C          5.0752353367       -0.8870504514       -2.2161763146
 C          6.4099289110       -0.5350348042       -2.2114986843
 C          6.7731322151        0.7480855555       -1.8343325004
 C          5.8093568842        1.6713396799       -1.4719159327
 O          6.2532901951        2.9073848543       -1.0811036660
 C          5.3117037058        3.8145672812       -0.6691902778
 C          5.7693492535        5.0460807365       -0.2377064750
 C          4.8721189474        6.0264573314        0.1586664095
 C          3.5157455315        5.7722194300        0.1037038825
 C          3.0515759773        4.5380336928       -0.3226124849
 C          3.9388312166        3.5341137651       -0.6927391865
 C          1.6629342638        1.8683061669        0.4020327969
 C          0.4270416828        1.3182864873        0.6589009356
 C          0.7615636252       -1.9475645309       -0.2466025859
 C          2.1171726665       -2.1809803754       -0.1846578256
 H          7.0622661339        2.2191130580        1.9512905139
 H          4.6162901688        2.2607256599        2.3027342915
 H          3.2773659684        0.2465670385        1.8836451588
 H          8.1371520811        0.1265026705        1.1470880310
 H          7.9879822932       -4.1755976393       -0.3604776495
 H          6.7809067108       -6.2822762939       -0.8881805124
 H          4.3508277230       -6.4311135411       -0.4383546164
 H          3.1473342686       -4.5001217728        0.4746687436
 H          2.5717191226       -1.7970274361        3.1415330596
 H          0.1335625351       -1.4199985065        3.0301549028
 H         -4.5778750816       -2.9421540054        2.1147027101
 H         -6.8812630681       -2.1871518392        1.5898961881
 H         -6.2806086468        1.5857257361        1.6407479476
 H         -7.1952083317        3.6988330737        2.4837035249
 H         -9.4958908920        4.3870523963        1.8839032190
 H        -10.8738704595        2.9036380902        0.4434696513
 H        -11.5150738031       -0.9178259254       -1.9911944584
 H        -10.7266725136       -3.0687836676       -2.9533290504
 H         -8.4051061852       -3.8114482287       -2.5230240131
 H         -6.9113277059       -2.4478723735       -1.1349887462
 H         -5.2929241480        0.9903153406       -0.8004727080
 H         -0.5235234872        0.5774742125       -2.4966155170
 H          1.7081778143        1.5278608932       -2.9594096490
 H          3.0659775416       -0.2493313229       -1.8619137420
 H          4.7801753497       -1.8879303619       -2.4957005391
 H          7.1681984687       -1.2511020689       -2.4855444679
 H          7.8066142298        1.0529557173       -1.8037569520
 H          6.8334391218        5.2197560959       -0.2244817081
 H          5.2382379064        6.9833265588        0.4956946004
 H          2.8059535611        6.5332068411        0.3892332404
 H          1.9901893076        4.3513393679       -0.3752810874
 H          2.2652336769        2.2618001023        1.2065260384
 H          0.0638193343        1.2662082279        1.6746346061
 H          0.2515956023       -1.9977952578       -1.1972338299
 H          2.6717111359       -2.4284670973       -1.0768666353
