  61
 
 C          8.7205520210        0.7993209317        0.6322805635
 C          7.9836817450       -0.1235739569        1.3557341277
 C          6.6280596157       -0.2650042184        1.1256075906
 C          5.9892672201        0.5178978244        0.1655313566
 C          4.5430825833        0.3967513854       -0.0595758572
 C          3.8982809827       -0.8238968083       -0.3220103814
 C          4.6534280934       -2.0056637056       -0.5489515393
 C          4.0535919071       -3.1939756892       -0.8289444525
 C          2.6505199904       -3.2732121462       -0.9267516868
 C          1.8875800350       -2.1632597544       -0.7350847260
 C          2.4652883700       -0.9066274023       -0.4119811372
 C          1.6560439815        0.2299341028       -0.2334360069
 C          0.1938896050        0.1825693748       -0.1779652786
 C         -0.4664553742       -0.7188652277        0.6583554491
 C         -1.8417737535       -0.7327411712        0.7403514720
 C         -2.6062182022        0.1515568740       -0.0229243710
 N         -3.9999975972        0.1338975812        0.0526086999
 C         -4.6777946513       -1.0787476585        0.2236942779
 C         -5.8156631845       -1.1461956597        1.0274014624
 C         -6.4845037110       -2.3439917341        1.1875632262
 C         -6.0292130094       -3.4920705156        0.5600881989
 C         -4.8972068005       -3.4315237316       -0.2360858771
 C         -4.2263776138       -2.2367318807       -0.4094167112
 C         -4.7231006991        1.3298576511       -0.0358919636
 C         -5.9462097946        1.3671823130       -0.7048395797
 C         -6.6598047379        2.5471670116       -0.7844512977
 C         -6.1655817463        3.7065485811       -0.2095306336
 C         -4.9488891265        3.6755612043        0.4521251260
 C         -4.2317465421        2.4987591203        0.5449412358
 C         -1.9486284302        1.0587070058       -0.8560217802
 C         -0.5729600729        1.0794707753       -0.9209902690
 C          2.3049458081        1.4592733952       -0.0719223736
 N          1.7303535492        2.6624477618        0.0734672205
 S          2.8776407862        3.7596572560        0.2829242050
 N          4.1585294711        2.8021306092        0.2156826096
 C          3.7448530016        1.5417247268        0.0141458652
 C          6.7350624625        1.4546839006       -0.5449901506
 C          8.0913302177        1.5888937668       -0.3158378609
 H          9.7802318146        0.9067653388        0.8117530393
 H          8.4664691525       -0.7334925856        2.1057185777
 H          6.0504883878       -0.9698788988        1.7070057500
 H          5.7302455187       -1.9355045996       -0.5232613117
 H          4.6489982608       -4.0777076654       -1.0047327342
 H          2.1883174622       -4.2160046537       -1.1796514859
 H          0.8166495302       -2.2159288445       -0.8586492679
 H          0.1103759513       -1.3886310121        1.2798631106
 H         -2.3366536931       -1.4231217903        1.4078217485
 H         -6.1671765346       -0.2545660236        1.5256782991
 H         -7.3633367402       -2.3826059707        1.8143291829
 H         -6.5529148090       -4.4268846895        0.6902653693
 H         -4.5382488372       -4.3202701189       -0.7341584134
 H         -3.3508123208       -2.1895328520       -1.0403633879
 H         -6.3291154460        0.4666655463       -1.1625040235
 H         -7.6050065316        2.5627795364       -1.3070100284
 H         -6.7246498193        4.6274588240       -0.2767374523
 H         -4.5579392144        4.5733616215        0.9078304762
 H         -3.2879965036        2.4755562870        1.0697147791
 H         -2.5287064348        1.7450750059       -1.4551135771
 H         -0.0785600135        1.7842230824       -1.5709014736
 H          6.2445200226        2.0702246259       -1.2832750127
 H          8.6609673981        2.3141079434       -0.8785179167
