  75
 
 C         -5.8405892198       -2.6814510707       -0.0117795978
 C         -4.4490887924       -2.7544613999        0.6033751025
 C         -3.6706586900       -3.9585567901        0.0793074719
 C         -2.3624096162       -4.2048110181        0.8433165715
 C         -1.3728223511       -3.0953379134        0.6435807102
 C         -0.4930083857       -3.1185431539       -0.4321344606
 C          0.4224362422       -2.1035316755       -0.6281421606
 C          0.4662897777       -1.0346620211        0.2594872214
 N          1.4002078428        0.0035956863        0.0932366299
 C          1.1445226725        1.3624642182        0.1919684079
 C         -0.1396420175        1.9615934900        0.3089824117
 C         -0.2542267914        3.1115292084        1.1192475773
 C         -1.4697394721        3.5939379379        1.4928429399
 C         -2.6832405725        2.9815807310        1.0294758296
 C         -3.9363424347        3.4246609624        1.4393114489
 C         -5.0981306030        2.8644782145        0.9251700946
 C         -5.0411025590        1.8723418173       -0.0595368236
 C         -6.2110762023        1.3296364414       -0.6539603796
 C         -6.1200747424        0.3825028903       -1.6563971712
 C         -4.8928561506       -0.0629417836       -2.1000327981
 C         -3.6900205725        0.4381994203       -1.5294615012
 C         -2.4295647334        0.0480123538       -1.9845925972
 C         -1.2721286574        0.5563571614       -1.4092296011
 C         -1.3276334713        1.4400115375       -0.3351528270
 C         -2.5921102102        1.9296212526        0.0795854481
 C         -3.7728078197        1.4077981457       -0.4964946460
 N          2.2793857365        2.0457934967        0.1865654056
 C          3.2837659804        1.1570225686        0.0529688344
 C          4.6681201164        1.5995469592        0.0190539796
 C          5.7171651475        0.7930099802        0.4580120340
 C          7.0170997142        1.2599950031        0.4142530373
 C          7.2892599803        2.5331322077       -0.0596429764
 C          6.2495089037        3.3479378327       -0.4787373468
 C          4.9483729290        2.8879223067       -0.4370928154
 C          2.7614288606       -0.1398114127       -0.0053126766
 C          3.4294528175       -1.4234143842       -0.1422458857
 C          3.1438317790       -2.4829470616        0.7192514906
 C          3.7911105154       -3.6947548033        0.5702133555
 C          4.7269514733       -3.8688184009       -0.4360298405
 C          5.0203276261       -2.8193173813       -1.2926998233
 C          4.3790669608       -1.6048045948       -1.1494164857
 C         -0.4129437346       -0.9947207361        1.3351534551
 C         -1.3211833580       -2.0179397673        1.5193741417
 H         -6.4229491159       -3.5618476539        0.2534973692
 H         -5.7743960745       -2.6266627015       -1.0954386693
 H         -6.3670303667       -1.7982199279        0.3412733247
 H         -3.9024264409       -1.8365132713        0.3770466664
 H         -4.5433614707       -2.8295846992        1.6894027162
 H         -4.2940779922       -4.8515635085        0.1699558807
 H         -3.4482673691       -3.8117885804       -0.9797781702
 H         -1.9265028181       -5.1440752900        0.4952868513
 H         -2.5895069900       -4.3081785607        1.9064751232
 H         -0.5210240543       -3.9468439028       -1.1252319954
 H          1.1014507571       -2.1346868877       -1.4674876107
 H          0.6598610485        3.5471165590        1.4936878678
 H         -1.5472537748        4.4380430082        2.1616432043
 H         -4.0016332312        4.2244260023        2.1633203114
 H         -6.0620574951        3.2136417102        1.2663123794
 H         -7.1751122691        1.6823998138       -0.3186235705
 H         -7.0238184149       -0.0090540613       -2.1020986231
 H         -4.8238131852       -0.7896337178       -2.8959438860
 H         -2.3552888022       -0.6556716861       -2.8010582537
 H         -0.3162046325        0.2772127168       -1.8249681830
 H          5.5131514115       -0.1923042174        0.8497168711
 H          7.8234265488        0.6277950294        0.7573591050
 H          8.3077684771        2.8913315117       -0.0943982915
 H          6.4566934885        4.3452722283       -0.8388176554
 H          4.1263823639        3.5103249136       -0.7550007409
 H          2.4276205554       -2.3489947913        1.5169627233
 H          3.5653732198       -4.5065657850        1.2459787858
 H          5.2291511826       -4.8178312507       -0.5503980795
 H          5.7505390443       -2.9496727675       -2.0777371316
 H          4.6029524090       -0.7858943004       -1.8173947461
 H         -0.3737915292       -0.1660655798        2.0268053673
 H         -1.9926193439       -1.9827570545        2.3642552849
