  78
 
 F         -1.3123242389        9.4215373956       -0.3329377483
 C         -0.6852800307        8.2463852029       -0.1724020140
 C         -1.3719676243        7.0766414151       -0.3362734415
 C         -0.6951229655        5.8559196028       -0.1560959954
 N         -1.3722240506        4.6954771420       -0.2280765161
 C         -0.7156404102        3.5716047270       -0.0711297265
 C         -1.4953619830        2.3319224674       -0.0426909027
 C         -1.1899042836        1.3032503346        0.8497676841
 C         -1.8885311514        0.1163434109        0.8074518492
 C         -2.9082434447       -0.0670101620       -0.1248041335
 N         -3.5687358563       -1.3083212721       -0.2004257526
 C         -4.9327567286       -1.4207087030        0.0799139813
 C         -5.7073909787       -0.3292809994        0.4508362815
 C         -7.0582224761       -0.4792102184        0.7260538811
 C         -7.6533719586       -1.7215721436        0.6447933904
 C         -6.8862429900       -2.8265009876        0.3058326112
 C         -5.5384382922       -2.6836041614        0.0342006313
 O         -4.8372670945       -3.8280326101       -0.2564531147
 C         -3.5088983443       -3.6941212062       -0.5739303468
 C         -2.8263479459       -4.8439450884       -0.9253874591
 C         -1.4911230971       -4.7803145957       -1.2959150065
 C         -0.8516987737       -3.5582032079       -1.3316102315
 C         -1.5292219453       -2.4030420320       -0.9720320486
 C         -2.8564344104       -2.4543343147       -0.5649800714
 C         -3.2531922126        0.9772104479       -0.9789491486
 C         -2.5570819999        2.1675477455       -0.9302465463
 C          0.7147013929        3.5717577884        0.0709512098
 C          1.4947069651        2.3322546970        0.0424981709
 C          2.5564737843        2.1681491560        0.9300490308
 C          3.2528822837        0.9779884867        0.9787546599
 C          2.9081888485       -0.0663243648        0.1246189913
 N          3.5690051045       -1.3074635241        0.2002385202
 C          4.9330770252       -1.4194753070       -0.0800025520
 C          5.7074242354       -0.3278471809       -0.4509344532
 C          7.0583173313       -0.4774059707       -0.7260513802
 C          7.6538148056       -1.7195941735       -0.6446840194
 C          6.8869780167       -2.8247231522       -0.3057156252
 C          5.5391139293       -2.6821966068       -0.0341846826
 O          4.8382434424       -3.8268101199        0.2564682447
 C          3.5098543365       -3.6932381919        0.5740042815
 C          2.8276438422       -4.8432159623        0.9256161256
 C          1.4924153439       -4.7799211220        1.2961899876
 C          0.8526494665       -3.5579857232        1.3317849230
 C          1.5298325971       -2.4026713516        0.9720561550
 C          2.8570423009       -2.4536351423        0.5649544032
 C          1.8884167789        0.1167627611       -0.8076231960
 C          1.1894932499        1.3034967139       -0.8499444916
 N          1.3710373113        4.6957680888        0.2279490688
 C          0.6936795560        5.8560639672        0.1560370627
 C          1.3702535818        7.0769219889        0.3363071476
 C          0.6833040243        8.2465252841        0.1725338039
 F          1.3100832164        9.4218047761        0.3331723090
 H         -2.4201176204        7.0766265408       -0.5865316822
 H         -0.4151785627        1.4420968356        1.5890384040
 H         -1.6497456103       -0.6831760084        1.4930630106
 H         -5.2506009140        0.6441622468        0.5364810359
 H         -7.6372114243        0.3865796817        1.0081421924
 H         -8.7045032669       -1.8426782701        0.8533275648
 H         -7.3155376526       -3.8142177435        0.2540480557
 H         -3.3613016588       -5.7799729350       -0.9083783400
 H         -0.9648789486       -5.6823518350       -1.5641824328
 H          0.1809436485       -3.4932070724       -1.6369806242
 H         -1.0216720173       -1.4517973441       -1.0104486484
 H         -4.0535983457        0.8401920659       -1.6907001955
 H         -2.8050282582        2.9767723906       -1.5994161836
 H          2.8042233544        2.9774422471        1.5992084297
 H          4.0533257045        0.8411739868        1.6905030006
 H          5.2503625645        0.6454609375       -0.5366666794
 H          7.6370802253        0.3885356292       -1.0081381009
 H          8.7049995154       -1.8404078667       -0.8531198036
 H          7.3165526235       -3.8123137627       -0.2538402111
 H          3.3628667228       -5.7790916629        0.9087104551
 H          0.9664492577       -5.6820733387        1.5646165888
 H         -0.1799965029       -3.4932453508        1.6371992171
 H          1.0220122144       -1.4515669211        1.0103739614
 H          1.6498219044       -0.6828240854       -1.4932220358
 H          0.4147263606        1.4421425367       -1.5892098540
 H          2.4184032031        7.0771190935        0.5865670741
