  85
 
 C         -7.8147106552       -4.0543185775        0.7208568639
 O         -6.5505258852       -3.9318729393        1.3234982291
 C         -5.6381719743       -3.0924325554        0.7599875389
 C         -4.4041769729       -3.0230167250        1.4348905843
 C         -3.3784194398       -2.2272919811        0.9820066523
 C         -3.5801659569       -1.4843149114       -0.1759667392
 C         -4.8312464883       -1.5201828108       -0.8425716594
 C         -5.8600036867       -2.3312956656       -0.3786518305
 C         -4.7322148830       -0.6056348465       -1.9402068681
 C         -5.6091943328       -0.2135873518       -2.9430569879
 C         -5.1702449084        0.6873944930       -3.8939062232
 C         -3.8680494649        1.1852229501       -3.8645008435
 C         -2.9780037731        0.8149345061       -2.8730212129
 C         -3.4203014731       -0.0652790580       -1.8959485811
 N         -2.7402484171       -0.6008678372       -0.8180442013
 C         -1.4287788890       -0.3088995888       -0.4578202661
 C         -0.9732398905        1.0310723171       -0.4332794773
 C          0.3232833838        1.3322027030       -0.1316484856
 N          0.7481045943        2.6640223791       -0.0513794901
 C          1.8543762956        3.1995783881       -0.6768679951
 C          2.7316078284        2.6096217405       -1.5748776198
 C          3.7585441657        3.3846954767       -2.0784447852
 C          3.9036489703        4.7211150139       -1.7155598643
 C          3.0136279110        5.3241995491       -0.8459849601
 C          1.9773285960        4.5645136381       -0.3241096437
 C          0.8828770518        4.8541890228        0.5606463905
 C          0.4889178616        6.0047252632        1.2290931217
 C         -0.6350310089        5.9422649628        2.0427446647
 O         -1.1388278661        6.9903686172        2.7517634842
 C         -0.4834869459        8.2320066931        2.6742915163
 C         -1.3404285446        4.7347272488        2.1908304428
 C         -0.9603597107        3.5888745126        1.5321106425
 C          0.1512998971        3.6514656107        0.6983643781
 C          1.2746782173        0.2855924741        0.1799365115
 C          2.5172297340        0.5721537497        0.6982497611
 N          3.5755002290        0.8051773228        1.1192781126
 C          0.7925148057       -1.0787156977        0.1096178526
 N          1.6961545961       -2.1144995745        0.3752211840
 C          1.5372148623       -3.1047708803        1.3218697031
 C          0.5026275699       -3.3063450732        2.2227932885
 C          0.5975073099       -4.3792700274        3.0892013700
 C          1.6990308255       -5.2309530169        3.0687103456
 C          2.7469877872       -5.0195600127        2.1913420518
 C          2.6738918219       -3.9488805539        1.3127271357
 C          3.5567568590       -3.4271687335        0.3058713546
 C          4.8008505807       -3.8283102845       -0.1584387433
 C          5.3874116046       -3.0978779349       -1.1846440949
 O          6.6002643979       -3.3734595015       -1.7356403245
 C          7.3488111342       -4.4450676862       -1.2171846782
 C          4.7188077008       -1.9952621963       -1.7469637947
 C          3.4862370884       -1.5907252452       -1.2950101970
 C          2.9094046905       -2.2973043748       -0.2449441473
 C         -0.5142439963       -1.3512656933       -0.1755272876
 H         -8.3647847446       -4.7695017300        1.3304075008
 H         -7.7369961277       -4.4358405673       -0.3025370925
 H         -8.3502910447       -3.0992900656        0.7127512749
 H         -4.2911021416       -3.6146950068        2.3287520440
 H         -2.4498224998       -2.1729003622        1.5266953546
 H         -6.8017433196       -2.3470701142       -0.9029501386
 H         -6.6121953356       -0.6115855630       -2.9793466250
 H         -5.8380789160        1.0038821398       -4.6811566792
 H         -3.5458981711        1.8691380416       -4.6352683557
 H         -1.9653581788        1.1878685612       -2.8748936351
 H         -1.6732883931        1.8276215794       -0.6353375391
 H          2.6192477920        1.5795027836       -1.8732215081
 H          4.4614069880        2.9450535407       -2.7698465061
 H          4.7205764835        5.2944163982       -2.1276036256
 H          3.1198350015        6.3648901991       -0.5787963711
 H          1.0599901228        6.9112189304        1.1109996625
 H          0.5455470669        8.1668747412        3.0423720681
 H         -1.0518105944        8.9061817737        3.3131486435
 H         -0.4795927986        8.6213432036        1.6508541274
 H         -2.1951119269        4.7351905343        2.8480304022
 H         -1.5041831116        2.6676347090        1.6722216060
 H         -0.3423748448       -2.6364267686        2.2581814087
 H         -0.1967495887       -4.5581852756        3.7984282308
 H          1.7369499626       -6.0612835771        3.7577958170
 H          3.6084566759       -5.6701639104        2.1925705147
 H          5.2821467530       -4.6876999859        0.2795522368
 H          8.2771854121       -4.4593094549       -1.7860117021
 H          6.8294143299       -5.3999720223       -1.3500199259
 H          7.5765372521       -4.2991678775       -0.1564672705
 H          5.2102107996       -1.4738435946       -2.5523510666
 H          2.9831056852       -0.7514890603       -1.7472107979
 H         -0.8427167151       -2.3769277779       -0.2526730796
