  52
 
 N         -1.8278922840       -6.2247118503        0.8305141778
 C         -1.2888093309       -5.2415887743        0.5907826992
 C         -0.6403650628       -4.0213186357        0.2933017922
 C         -1.2596102711       -2.8130258249        0.5916909100
 C         -0.6355070515       -1.6019249210        0.3115966160
 N         -1.2624855128       -0.4068941347        0.6597157773
 C         -2.5432178843       -0.0149914459        0.2792735103
 C         -3.5039257150       -0.7144523993       -0.4350896371
 C         -4.6948475588       -0.0686358151       -0.7153071142
 C         -4.9277120791        1.2423177993       -0.3057706665
 C         -3.9669666821        1.9505469051        0.3887076367
 C         -2.7647437350        1.3195201664        0.6819360854
 C         -1.5672168600        1.7491545264        1.3502210672
 N         -1.2830033198        2.9116173273        1.9170413649
 C         -0.0987195161        3.0124810676        2.4935567700
 C          0.8234329285        1.9708925983        2.5767284559
 C          0.5390880520        0.7473654357        1.9920017060
 C         -0.6697333497        0.6517228223        1.3225368307
 C          0.6353621179       -1.6020251886       -0.3117215483
 N          1.2624991353       -0.4070956881       -0.6599169751
 C          2.5431937596       -0.0152694797       -0.2792761006
 C          3.5037084633       -0.7147758942        0.4353023866
 C          4.6945738744       -0.0689938332        0.7158336147
 C          4.9275734979        1.2419601927        0.3063688865
 C          3.9670409672        1.9502102366       -0.3883832052
 C          2.7648693090        1.3192238282       -0.6819160064
 C          1.5674936657        1.7489042074       -1.3504453162
 N          1.2834653081        2.9113522522       -1.9173884790
 C          0.0992783532        3.0122764497       -2.4940925009
 C         -0.8229894598        1.9707905861       -2.5772602846
 C         -0.5388498956        0.7472847898       -1.9923915431
 C          0.6699106894        0.6515516839       -1.3228288614
 C          1.2593313406       -2.8132128923       -0.5917253985
 C          0.6399489243       -4.0214158158       -0.2932505975
 C          1.2882707543       -5.2417717262       -0.5906241084
 N          1.8272598981       -6.2249632805       -0.8302100745
 H         -2.2226828485       -2.8139225639        1.0795333924
 H         -3.3354319015       -1.7254847630       -0.7743720783
 H         -5.4590849744       -0.5952080156       -1.2668817115
 H         -5.8713749903        1.7090950302       -0.5433823930
 H         -4.1260052434        2.9707140804        0.6997831320
 H          0.1183315776        3.9754793451        2.9353282935
 H          1.7542936518        2.1162822830        3.1011906967
 H          1.2259715195       -0.0820112951        2.0729069063
 H          3.3350859456       -1.7257990408        0.7745451076
 H          5.4586438366       -0.5955801684        1.2676268690
 H          5.8711781328        1.7087147115        0.5442437013
 H          4.1262028444        2.9703617735       -0.6994376875
 H         -0.1176224444        3.9752699033       -2.9359589246
 H         -1.7537868136        2.1162520359       -3.1018144821
 H         -1.2258333013       -0.0820146880       -2.0732677409
 H          2.2224115387       -2.8142509031       -1.0795529508
