90

C     -6.861430   -4.702148   -0.487466
C     -6.348400   -3.936491    0.557960
C     -6.711043   -2.593202    0.684838
C     -7.576916   -1.998637   -0.244432
C     -7.982554   -0.591064   -0.135117
N     -9.249297   -0.214516   -0.150615
C     -9.253297    1.123578    0.113065
C    -10.352019    1.989969    0.228452
C    -10.124922    3.347852    0.468749
C     -8.825693    3.837649    0.575831
C     -7.719011    2.987580    0.460926
C     -7.959907    1.616406    0.257567
N     -7.137845    0.507184    0.066473
C     -5.712315    0.517914    0.046508
C     -5.001850    1.284951    0.977024
C     -3.604075    1.283956    0.963285
C     -2.894693    0.523670    0.020826
C     -1.412576    0.519759    0.014843
C     -0.707024    1.499252   -0.749899
C     -1.373268    2.486554   -1.524594
C     -0.688783    3.445038   -2.270576
C      0.692200    3.447522   -2.266645
C      1.375839    2.490867   -1.517626
C      0.708580    1.500533   -0.747505
C      1.413279    0.520629    0.017417
C      2.895399    0.524527    0.025387
C      3.618778   -0.214879   -0.922132
C      5.016464   -0.221938   -0.909007
C      5.713578    0.515559    0.056115
N      7.139409    0.502460    0.079575
C      7.983735   -0.590281   -0.152822
C      7.576250   -1.992368   -0.311027
C      8.094288   -2.742134   -1.376060
C      7.728331   -4.078611   -1.549190
C      6.851140   -4.682509   -0.650314
C      6.348536   -3.955410    0.427451
C      6.715518   -2.618756    0.601868
N      9.251219   -0.216475   -0.147748
C      9.256009    1.112641    0.158148
C     10.355692    1.972269    0.308560
C     10.130009    3.322898    0.588958
C      8.831208    3.812638    0.701076
C      7.723552    2.969089    0.551961
C      7.962638    1.603811    0.308886
C      5.001491    1.260189    1.003571
C      3.603720    1.261872    0.986574
C      0.707604   -0.462652    0.777685
C      1.373865   -1.455135    1.546272
C      0.689711   -2.414257    2.291431
C     -0.691188   -2.412945    2.292423
C     -1.374649   -1.453061    1.547476
C     -0.707764   -0.462364    0.777348
C     -3.616933   -0.237488   -0.910197
C     -5.014561   -0.243805   -0.899076
C     -8.103689   -2.786335   -1.277171
C     -7.742985   -4.129623   -1.402376
H     -6.584044   -5.748969   -0.582264
H     -5.672970   -4.386952    1.280501
H     -6.316958   -2.019650    1.520409
H    -11.359164    1.601243    0.122861
H    -10.970286    4.025876    0.556876
H     -8.666615    4.901440    0.740376
H     -6.716246    3.398098    0.509128
H     -5.509010    1.851532    1.753913
H     -3.062829    1.873856    1.701080
H     -2.460936    2.521409   -1.559443
H     -1.239040    4.180982   -2.850033
H      1.243266    4.185895   -2.842566
H      2.463612    2.529591   -1.546209
H      3.090607   -0.790342   -1.680819
H      5.533500   -0.786493   -1.681730
H      8.792053   -2.282530   -2.073922
H      8.134920   -4.648387   -2.380797
H      6.569361   -5.724044   -0.782767
H      5.677103   -4.430895    1.137759
H      6.328554   -2.075255    1.460650
H     11.362681    1.584393    0.198494
H     10.976192    3.995780    0.704253
H      8.673264    4.871662    0.896445
H      6.721468    3.380828    0.604842
H      5.507194    1.806210    1.796160
H      3.061624    1.834025    1.737802
H      2.461527   -1.495079    1.574086
H      1.240114   -3.154751    2.864979
H     -1.242187   -3.152056    2.867001
H     -2.462300   -1.491094    1.576969
H     -3.087824   -0.830806   -1.654265
H     -5.531508   -0.826648   -1.658339
H     -8.806471   -2.351612   -1.985847
H     -8.158011   -4.728988   -2.208514
