59

Br    -6.796572   -0.366227    2.101452
C     -6.849918   -1.282030    0.383154
C     -5.795095   -2.375805    0.299540
C     -4.468196   -1.940160   -0.335564
C     -3.687616   -0.905203    0.474315
C     -2.304891   -0.648335   -0.138206
C     -1.539237    0.412680    0.663183
C     -0.085777    0.733010    0.198500
C      0.804774   -0.535561    0.151845
C      2.290001   -0.292753   -0.168855
C      3.066851   -1.612985   -0.209371
C      4.547095   -1.373447   -0.515093
C      5.352365   -2.665384   -0.703863
C      5.392280   -3.602118    0.493952
Br     6.403601   -2.832937    1.966710
C     -0.069167    1.511321   -1.126136
C     -0.380253    1.066511   -2.404922
C     -0.280254    1.972377   -3.462239
Br    -0.706768    1.402161   -5.215432
C      0.135422    3.294754   -3.250648
C      0.472583    3.732549   -1.966521
C      0.375056    2.836598   -0.911999
C      0.706342    3.008015    0.485341
C      1.200913    4.113208    1.160957
C      1.464760    3.998621    2.529993
C      1.234211    2.787554    3.200074
Br     1.605492    2.665292    5.051295
C      0.736166    1.671958    2.526482
C      0.474023    1.793876    1.166938
H     -7.854107   -1.713164    0.331405
H     -6.746191   -0.524987   -0.398471
H     -5.608193   -2.835361    1.277334
H     -6.197818   -3.171705   -0.340642
H     -4.657903   -1.549453   -1.343075
H     -3.847180   -2.836110   -0.462108
H     -3.570364   -1.255046    1.506759
H     -4.241283    0.039298    0.502522
H     -2.439778   -0.320313   -1.172445
H     -1.746221   -1.589694   -0.156117
H     -2.135230    1.336941    0.667904
H     -1.508408    0.073725    1.708239
H      0.740498   -1.055679    1.117021
H      0.413477   -1.231028   -0.601021
H      2.390634    0.210350   -1.137062
H      2.740776    0.360162    0.586668
H      2.634473   -2.270078   -0.973374
H      2.959676   -2.118637    0.756515
H      4.992504   -0.758870    0.275332
H      4.629435   -0.789021   -1.440408
H      6.375530   -2.395333   -0.994364
H      4.926951   -3.214401   -1.553382
H      4.401062   -3.854943    0.876138
H      5.911382   -4.529857    0.235548
H     -0.683354    0.040661   -2.582858
H      0.209911    3.987373   -4.085449
H      0.812103    4.751303   -1.810926
H      1.387699    5.050882    0.648097
H      1.853913    4.858389    3.070091
H      0.557813    0.737055    3.047249
