  34
 
 C         -5.1595581361       -1.4645168366        0.0000200275
 C         -5.5651238182       -0.1292972412        0.0000194010
 C         -4.6323780348        0.8842184015        0.0000149510
 C         -3.2697079214        0.5766592794        0.0000102765
 N         -2.3245023145        1.5590928439        0.0000044716
 C         -0.9740696395        1.3403212461       -0.0000005316
 C         -0.0886850225        2.3970677744       -0.0000036617
 C          1.2957517065        2.1765431222       -0.0000003951
 C          1.7855859913        0.8987546391       -0.0000039979
 C          3.1274051420        0.3799305851       -0.0000153316
 C          4.3697297632        0.9938222323       -0.0000217685
 C          5.5049499024        0.2018631723       -0.0000210268
 C          5.4101638887       -1.1886542350       -0.0000158395
 C          4.1810365852       -1.8193364278       -0.0000065344
 C          3.0271662734       -1.0405665486       -0.0000082468
 C          1.6464545828       -1.3983264122       -0.0000065024
 C          0.8950320560       -0.2416980365       -0.0000058504
 C         -0.5216064522       -0.0328874191        0.0000025967
 C         -1.4534085709       -1.0418823442        0.0000088412
 C         -2.8458376573       -0.7730290742        0.0000114150
 C         -3.8218002940       -1.7817567412        0.0000169032
 H         -5.9020145760       -2.2481229766        0.0000251282
 H         -6.6176064033        0.1110778596        0.0000224590
 H         -4.9431348670        1.9191261247        0.0000138738
 H         -2.6405580956        2.5218358374        0.0000047068
 H         -0.4682682223        3.4088623471       -0.0000036988
 H          1.9645569917        3.0255318700       -0.0000141837
 H          4.4551504936        2.0718173236       -0.0000195356
 H          6.4819641622        0.6652994098       -0.0000236851
 H          6.3163505960       -1.7791265771       -0.0000174574
 H          4.1153973528       -2.8990359818       -0.0000082297
 H          1.2810315323       -2.4097126286       -0.0000013132
 H         -1.1286120659       -2.0710274229        0.0000060677
 H         -3.5008559286       -2.8128471650        0.0000186710
