  83
 
 C         -6.5292937422       -2.0646444131       -3.2397408332
 C         -6.6453816322       -1.6084033787       -1.7884328544
 C         -5.5462466521       -0.6051590365       -1.4484137489
 C         -5.4798435514       -0.1186324666        0.0154087660
 C         -5.3536004637       -1.2546761531        1.0519943198
 C         -4.1921777315       -2.2285386443        0.8679081373
 C         -4.2615276637       -3.3514284712        1.8986434244
 C         -6.6758696741        0.7325074661        0.4011808805
 C         -7.9968666356        0.3672865743        0.5643609204
 C         -8.9237679905        1.3293919669        0.9446908843
 C         -8.5359041806        2.6393794510        1.1792116558
 C         -7.2081321267        3.0114355365        1.0514704470
 C         -6.2833592742        2.0536419274        0.6663985468
 C         -4.8482007055        2.1559773664        0.4790057683
 C         -4.0025934797        3.2493741727        0.5953441322
 C         -2.6570032312        3.0857403810        0.3299641820
 C         -2.1593974642        1.8396855549       -0.0607071728
 C         -0.7835361046        1.6906116969       -0.3444005728
 C          0.3938380222        1.5647969300       -0.5866816408
 C          1.7711461388        1.4246623468       -0.8671864539
 C          2.3315851704        2.0993741035       -1.9574211292
 C          3.6768933457        1.9796787162       -2.2453599213
 C          4.4671112483        1.1819994511       -1.4292065534
 C          3.9113806529        0.5060220554       -0.3309817342
 C          2.5688053030        0.6135248185       -0.0510793637
 C          4.9616740508       -0.3227710564        0.3768902940
 C          4.5980230588       -1.8066312110        0.1099886286
 C          5.5838909756       -2.8489147507        0.6313934665
 C          5.0512473499       -4.2593444825        0.3971278978
 C          5.0418991052       -0.0435363090        1.8878263256
 C          4.9776827326        1.4323654985        2.2907978553
 C          6.2115994953        2.2415604172        1.9083267997
 C          6.2094884098        0.0614055873       -0.3839610540
 C          7.5175872583       -0.2921698058       -0.1489588830
 C          8.5079338917        0.1750826757       -1.0241429432
 C          9.8533842524       -0.1769232589       -0.7950406417
 N         10.9488024595       -0.4676193280       -0.6052562259
 C          8.1830396898        0.9864702349       -2.1154300978
 C          6.8709864043        1.3577667223       -2.3363840940
 C          5.8887796999        0.9020435301       -1.4679008982
 C         -3.0167116745        0.7388512904       -0.1810646194
 C         -4.3537306325        0.8948941239        0.1065606193
 H         -6.6026446678       -1.2138212752       -3.9144999291
 H         -5.5741002020       -2.5565146711       -3.4139969299
 H         -7.3251471027       -2.7651208074       -3.4841582287
 H         -6.5751764052       -2.4798612778       -1.1360858535
 H         -7.6227092252       -1.1478688494       -1.6419199562
 H         -5.6736241470        0.2784444379       -2.0814812210
 H         -4.5795173751       -1.0446572588       -1.7021629288
 H         -5.2667958330       -0.7901697680        2.0390512106
 H         -6.2875670258       -1.8200275061        1.0454188250
 H         -4.2205565895       -2.6635546209       -0.1320276313
 H         -3.2449908023       -1.7015315975        0.9859835825
 H         -5.1883444783       -3.9126244185        1.7950169395
 H         -4.2193664888       -2.9468389296        2.9081391816
 H         -3.4287158979       -4.0396734076        1.7698806615
 H         -8.3213917824       -0.6508261268        0.4112238053
 H         -9.9608600693        1.0502182957        1.0649842667
 H         -9.2736356593        3.3714781650        1.4753640495
 H         -6.8998627195        4.0268788442        1.2535129693
 H         -4.3883252687        4.2165983060        0.8824520943
 H         -1.9761851477        3.9208167949        0.4144590092
 H          1.6947151600        2.7174551720       -2.5737795249
 H          4.1029114953        2.5009360196       -3.0897087730
 H          2.1220641705        0.1006506991        0.7880418792
 H          4.4899146947       -1.9389019389       -0.9705884249
 H          3.6204625814       -1.9925613093        0.5609135739
 H          5.7512612539       -2.7068455645        1.6999521529
 H          6.5403897767       -2.7434745308        0.1173371114
 H          4.8829033407       -4.4337681864       -0.6637900527
 H          5.7631353588       -4.9989061456        0.7571499364
 H          4.1093411519       -4.4061093449        0.9218851448
 H          4.2078311519       -0.5600185603        2.3685404474
 H          5.9672617161       -0.4710214632        2.2769006681
 H          4.0925184991        1.8965965203        1.8511890887
 H          4.8626137469        1.4705914804        3.3775654521
 H          6.1481911322        3.2407238091        2.3351600032
 H          7.1160729049        1.7670286587        2.2846852135
 H          6.2993377793        2.3411042783        0.8300475780
 H          7.8046828815       -0.9013001072        0.6948414622
 H          8.9698505606        1.3264266896       -2.7733018844
 H          6.6194945502        1.9985782086       -3.1678373442
 H         -2.6090711235       -0.2046695436       -0.5110991401
