  59
 
 C          0.2755472212        3.2667970320       -0.9429905815
 C         -0.1433918361        2.1216364114       -1.6034786869
 C          0.5208950593        0.9257769862       -1.4201191639
 C          1.6109462181        0.8497874968       -0.5515194779
 C          2.0383646076        2.0145417890        0.0871663564
 C          1.3766947843        3.2147042691       -0.1060978846
 S          3.4271221059        1.9430142640        1.1819392311
 C          4.3523724334        0.7080615425        0.3114555091
 C          5.7361584700        0.7706073690        0.3071094593
 C          6.4690221618       -0.1775189037       -0.3836786125
 C          5.8112429465       -1.1608050372       -1.1067120272
 C          4.4311034317       -1.2214511940       -1.1102540964
 C          3.6790354461       -0.3136842336       -0.3649593504
 N          2.2818756470       -0.3615448202       -0.3406554636
 C          1.5292245135       -1.5015288270       -0.0927990505
 C          2.0260404894       -2.7804363536        0.0920991806
 C          1.1335455268       -3.8186033270        0.3502986202
 C         -0.2510074467       -3.5691831737        0.4577855853
 C         -1.2205610889       -4.5364924374        0.7373439708
 C         -2.5681176875       -4.1845633295        0.8749586947
 C         -2.9700787575       -2.8771976064        0.7537878920
 C         -2.0189599870       -1.8695470928        0.5017708531
 N         -2.4184762278       -0.5233896060        0.3370550618
 C         -3.1832421652       -0.2061498927       -0.7754933560
 C         -3.4943420230       -1.2015939139       -1.7137231963
 C         -4.2917849301       -0.9452384082       -2.8086636601
 C         -4.7998345620        0.3266422339       -3.0268160090
 C         -4.4636375689        1.3374651804       -2.1500326749
 C         -3.6618135857        1.0834739303       -1.0437368477
 S         -3.2649217439        2.4765691326       -0.0456826744
 C         -2.0343866986        1.8059317811        1.0146167746
 C         -1.3389015280        2.7236274428        1.7903776123
 C         -0.4283614785        2.2976989967        2.7356874655
 C         -0.2775617091        0.9362343536        2.9538924276
 C         -0.9732847652        0.0227524449        2.1932953090
 C         -1.8216086242        0.4274017997        1.1497079355
 C         -0.6512695732       -2.2024783622        0.3337931917
 N          0.2185067454       -1.2326956220        0.0893763326
 H         -0.2459088467        4.2002021150       -1.0878848999
 H         -0.9889276392        2.1626652592       -2.2745445801
 H          0.2053795479        0.0390437746       -1.9462339407
 H          1.7234616986        4.0957941357        0.4112364899
 H          6.2263152857        1.5618821651        0.8528778080
 H          7.5469725467       -0.1364616481       -0.3739414800
 H          6.3761659988       -1.8801856548       -1.6799767768
 H          3.9209775454       -1.9631277353       -1.7048350615
 H          3.0826888944       -2.9834135139        0.0464515561
 H          1.4990071155       -4.8274912610        0.4635224879
 H         -0.9133835535       -5.5614620435        0.8805802240
 H         -3.2947610941       -4.9511356679        1.0991986803
 H         -4.0047459329       -2.5947688900        0.8800369540
 H         -3.0899736063       -2.1910370124       -1.5769527052
 H         -4.5105620829       -1.7438953675       -3.5006492812
 H         -5.4294232713        0.5320026494       -3.8779092142
 H         -4.8130536182        2.3466343286       -2.3074018665
 H         -1.5321342614        3.7747985423        1.6407875504
 H          0.1286111694        3.0152461652        3.3167104715
 H          0.3845432137        0.5825181142        3.7291032951
 H         -0.8765304947       -1.0266250428        2.4135056055
