  57
 
 F         -2.8217237318       -2.0555722045        1.9468770510
 C         -1.8284211230       -1.4170527016        1.2979536244
 C         -0.5337866108       -1.7263395162        1.5928115911
 C          0.4978857498       -1.0323463385        0.9309551263
 N          1.7817003833       -1.3641114579        1.1456398731
 C          2.7216499004       -0.6911975914        0.5230912475
 C          4.0967444506       -1.1735030808        0.6919420497
 C          4.9812265436       -1.2296665385       -0.3832846375
 C          6.2671711860       -1.7000817669       -0.1978507173
 C          6.6853188931       -2.1161371210        1.0559715250
 C          5.8042900424       -2.0807558389        2.1244380283
 C          4.5140788850       -1.6203919509        1.9434701570
 C          2.3908148807        0.4388372650       -0.2966951332
 C          3.4071650676        1.3454041212       -0.8435902061
 C          4.4961538130        1.7566105017       -0.0779772144
 C          5.4312378779        2.6217698981       -0.6133170106
 C          5.2934493530        3.0830344206       -1.9126393297
 C          4.2025173306        2.6925614408       -2.6718144571
 C          3.2587890187        1.8353223531       -2.1388194275
 N          1.1403820694        0.7257530537       -0.5695684756
 C          0.1666245768       -0.0089032266        0.0002626722
 C         -1.1806479713        0.2629609103       -0.2932742079
 C         -2.1842583249       -0.4261155903        0.3469264287
 N         -3.5394087189       -0.1562140432        0.1003476773
 C         -4.3731694797       -1.1677295363       -0.3890220307
 C         -3.8715052416       -2.3854096709       -0.8288050836
 C         -4.7215085109       -3.3689661105       -1.3101233861
 C         -6.0814251576       -3.1430793009       -1.3763609877
 C         -6.5926936283       -1.9169523550       -0.9785455411
 C         -5.7491690624       -0.9338206739       -0.4953787129
 O         -6.3184926383        0.2656902675       -0.1514418313
 C         -5.4821911314        1.2653412047        0.2748590666
 C         -6.0698018918        2.4784703997        0.5849042590
 C         -5.2996883104        3.5311746013        1.0547651814
 C         -3.9412791407        3.3563615152        1.2236251440
 C         -3.3456057715        2.1440798375        0.9101629619
 C         -4.0992240684        1.0875442746        0.4161102602
 H         -0.2910419759       -2.4839215519        2.3198688137
 H          4.6555379661       -0.9219412461       -1.3661178490
 H          6.9465549907       -1.7433419930       -1.0362662205
 H          7.6941076090       -2.4746832699        1.1975756623
 H          6.1240953305       -2.4151164527        3.1003956078
 H          3.8155892271       -1.5913011669        2.7657460831
 H          4.5999253270        1.4124698203        0.9406217853
 H          6.2715229536        2.9385321655       -0.0133806571
 H          6.0316837732        3.7519807208       -2.3295137188
 H          4.0866743660        3.0595289906       -3.6810240819
 H          2.4013301709        1.5264683822       -2.7170129118
 H         -1.4101601369        1.0254151339       -1.0209948020
 H         -2.8081530000       -2.5690186670       -0.7991958760
 H         -4.3072375737       -4.3105454849       -1.6358302029
 H         -6.7475739968       -3.9066634315       -1.7457786576
 H         -7.6476958656       -1.7018607506       -1.0360404230
 H         -7.1363605105        2.5740384002        0.4588299038
 H         -5.7672465646        4.4732441630        1.2935885533
 H         -3.3294791044        4.1597219637        1.6039648089
 H         -2.2852724937        2.0204248239        1.0639566479
