  63
 
 N          2.0789184163        3.5690233264       -0.8951346979
 C          1.6147497652        2.5828003036       -0.5360766681
 C          1.0198613005        1.3652619228       -0.1392093332
 C         -0.3569041275        1.2489750911       -0.1958826774
 C         -0.9883389214        0.0244158528        0.0827728088
 C         -2.4008634037       -0.0843169933        0.0390930639
 N         -3.1605954465        1.0014919301       -0.2547857795
 C         -4.4592622093        0.8847187114       -0.2773310512
 C         -5.2803085814        2.0498829018       -0.5749333334
 C         -6.6715819202        1.9438328575       -0.5848357472
 C         -7.4482883835        3.0505501824       -0.8638933639
 C         -6.8497547178        4.2712075531       -1.1359055513
 C         -5.4669645977        4.3826351627       -1.1280094774
 C         -4.6835634382        3.2813816396       -0.8495229883
 N         -5.0788312358       -0.2889840204       -0.0336050014
 C         -4.3022087448       -1.3567593489        0.2462979509
 C         -4.9511680849       -2.6340245834        0.5042474420
 C         -6.3417307462       -2.7379852982        0.4531102297
 C         -6.9547471799       -3.9508778447        0.6961072330
 C         -6.1920045038       -5.0702562808        0.9918503220
 C         -4.8090385328       -4.9730663797        1.0437664241
 C         -4.1886082454       -3.7645736270        0.8019944038
 N         -3.0016548272       -1.2728599244        0.2957372416
 C         -0.1764280330       -1.0952842564        0.3855068067
 C          1.1867948497       -0.9781680334        0.4545439422
 C          1.8095091321        0.2518989220        0.2269851135
 N          3.2039188374        0.3556920143        0.3226390563
 C          3.9453442680        1.3536657766        0.9423152337
 C          3.5450263394        2.4369416592        1.7074958734
 C          4.5319262452        3.2601139303        2.2194734875
 C          5.8816594037        3.0107787665        1.9931857108
 C          6.2989238235        1.9093652600        1.2644730292
 C          5.3212151281        1.0801227844        0.7502451759
 N          5.3777319290       -0.0942224470        0.0362042864
 C          6.2110340949       -1.0335050350       -0.5316506672
 C          7.5806596165       -1.1589153648       -0.6270138349
 C          8.0677033296       -2.2752136955       -1.2893621655
 C          7.2124107362       -3.2300900943       -1.8357493009
 C          5.8394396482       -3.1131691928       -1.7457544931
 C          5.3232292474       -2.0027819468       -1.0871568747
 N          4.0126484702       -1.6599274255       -0.8619770524
 C          4.0890016921       -0.5326537017       -0.2032292073
 H         -0.9603032840        2.0986440110       -0.4763468343
 H         -7.1229499870        0.9872541453       -0.3708383022
 H         -8.5250489840        2.9646496722       -0.8702097066
 H         -7.4597973466        5.1353161304       -1.3540022866
 H         -5.0016181288        5.3338974578       -1.3404200178
 H         -3.6069690805        3.3530225739       -0.8401268418
 H         -6.9219121274       -1.8582017348        0.2209636002
 H         -8.0314410506       -4.0275304813        0.6553485261
 H         -6.6741986557       -6.0178782470        1.1813811294
 H         -4.2160216575       -5.8461062103        1.2736751815
 H         -3.1140721964       -3.6732083538        0.8379703917
 H         -0.6590830608       -2.0418699518        0.5674748171
 H          1.8054916914       -1.8316014520        0.6845468991
 H          2.5036588811        2.6312867084        1.9058841282
 H          4.2455902626        4.1150751336        2.8115440481
 H          6.6198883611        3.6812422069        2.4049031555
 H          7.3451277727        1.7014590709        1.1083342913
 H          8.2469928243       -0.4217264157       -0.2065848393
 H          9.1350253611       -2.4065417907       -1.3835067056
 H          7.6387706011       -4.0827118031       -2.3427785951
 H          5.1757781238       -3.8495893466       -2.1682624780
