106
 xtb: 6.7.1 (edcfbbe)
C           -6.47811670826456        3.15638113309262       -0.20762000344268
C           -7.22952586488968        1.81629817445567       -0.10829204562033
C           -8.49825349592508        2.04312624637671        0.71966293981299
C           -7.65455507179321        1.36352718667262       -1.51684312194072
C           -6.30797119062557        0.77828807489369        0.49111423455148
C           -6.59265225342006        0.09834201596276        1.70415577045527
C           -5.75144643100074       -0.82683596310548        2.24385081950302
C           -4.52277941204810       -1.13610464604939        1.57947905123963
C           -4.23910181580279       -0.45251177410732        0.33109878097176
C           -5.10143952487534        0.46008676617017       -0.18220656182156
C           -2.92670520957238       -0.95384526424420       -0.24206445248689
C           -3.26733152020162       -1.63000296044149       -1.55205378506045
C           -3.35676067537416       -0.90571056745163       -2.73890260226341
C           -3.76438032098362       -1.54704337400406       -3.89503713064719
C           -4.06967793582156       -2.89870094202461       -3.82723402132512
N           -3.99256948277792       -3.59967457744833       -2.70657883219670
C           -3.60879246679276       -2.97892524479632       -1.60549964513829
C           -1.85094406493908        0.10213296952555       -0.38724869880005
C           -0.73155434268847       -0.17304848989205       -1.18252221575861
C            0.34682449583223        0.68432647627665       -1.24731558257962
C            0.30154580487144        1.84775757613662       -0.49256214227959
C           -0.84654635541841        2.17210957110140        0.26443244491787
C           -1.91214092847175        1.28561532934310        0.33099475610530
C           -0.59541823221124        3.46151276033349        0.84742994919240
C           -1.33580491983734        4.29284875178506        1.67751900045478
C           -0.77795009276993        5.49001888555645        2.08239787174210
C            0.50715518359231        5.85227982754838        1.68440700564499
C            1.26320222326867        5.04116839918904        0.85830430408710
C            0.69792007566440        3.85030003285410        0.42558887952062
N            1.22955512888541        2.86359110036941       -0.38628976909475
C            2.53978953842147        2.82100286125707       -0.88263196861896
C            3.06539486724349        3.89564654002409       -1.59534336115049
C            4.37014915389592        3.84176738465760       -2.05294576944636
C            5.15675275909310        2.72803252534205       -1.81839958619669
C            4.63452772842271        1.65047501852530       -1.10648542835625
N            5.42718425323454        0.52578704348037       -0.83618867853960
C            6.67041682989907        0.54361547356443       -0.22943155469320
C            7.41943243918570        1.62129204183347        0.22148336958325
C            8.63700384016809        1.35606618869913        0.82095436531177
C            9.10274083638469        0.05180763857888        0.97853510294079
C            8.35165305044669       -1.02576958159172        0.55214433815250
C            7.12373712642600       -0.78460031954240       -0.05231306032801
C            6.09893011396618       -1.64040521338596       -0.58331777580482
C            5.97275829944731       -3.01832859247334       -0.70834993761453
C            4.83785535304763       -3.52799734934151       -1.30890220241869
C            3.84424499248156       -2.68151497127164       -1.79826866157823
C            3.94684586058845       -1.30839827264107       -1.68165733888088
C            5.07055153745515       -0.79055634435642       -1.05338880654579
C            3.32685375679249        1.70045353796840       -0.63831127691630
C           -2.47690629109940       -1.91880611352039        0.84040383748497
C           -1.31921655988176       -2.61880059097878        0.93059822376678
C           -1.06593913723542       -3.46599844201098        2.03902371213387
C            0.24135141426013       -4.22353328798922        2.09367166049163
C            0.37190760468750       -5.10933169042117        3.33634496744650
C            1.40220651757210       -3.21196076138631        2.10255228707339
C            0.36114661418731       -5.12414611592600        0.85120466502170
C           -2.05766401361791       -3.55246934898402        3.04974565100229
C           -3.22464324606822       -2.85100046119646        2.99805611608286
C           -3.47855049285213       -1.98489189784751        1.88771502650898
H           -6.17698280256672        3.49077747130224        0.76513881954579
H           -5.59163825680057        3.07058920450273       -0.84348870552392
H           -7.12781754133999        3.91646255113561       -0.66169773975149
H           -8.26736973357592        2.40067097588357        1.69580119855676
H           -9.09183597313070        1.13314098174519        0.76962596228297
H           -9.11926429391999        2.80136241090089        0.20904259682220
H           -8.32968439828797        2.09203634837694       -1.97687779854512
H           -8.16187627876617        0.40282951744580       -1.48490440211776
H           -6.79320775722428        1.25606053614822       -2.19340601236527
H           -7.52400275694573        0.32316350736908        2.20599656889423
H           -6.01400499392100       -1.32583555912934        3.15605859176206
H           -4.86336690600231        0.95377944315282       -1.12115953774037
H           -3.09283332065561        0.14260481830544       -2.75470302607807
H           -3.82748944589049       -1.01512757095776       -4.83226553010364
H           -4.37693140573615       -3.45293469870560       -4.70477766995677
H           -3.56997487110036       -3.59366838540967       -0.71451117574414
H           -0.71453342906522       -1.08250378073369       -1.75954449056012
H            1.19525304533395        0.45679961555596       -1.86239050065487
H           -2.78252591128742        1.51265831475528        0.93915476314654
H           -2.33108731280422        4.00061945750342        2.00674232311020
H           -1.34491257704913        6.15010636434713        2.73576824545599
H            0.91893536371861        6.78290147394017        2.04740549745686
H            2.26240079997961        5.31991683600221        0.59026527725028
H            2.44317488694818        4.75241623593519       -1.78397855143758
H            4.76856870030198        4.66848666022790       -2.60241287524817
H            6.16249615737237        2.67728489179251       -2.18651921616167
H            7.06749533759951        2.63836535900557        0.11515798281000
H            9.26996165480981        2.18977917464454        1.12443684056394
H           10.11173391054371       -0.09837927169260        1.36053588508401
H            8.75286912948117       -2.02535908136599        0.61518215025031
H            6.78991664395605       -3.66785880505353       -0.38918302761640
H            4.74188058176728       -4.59843766153557       -1.41713686081085
H            2.97161163787822       -3.11640311354239       -2.23699427752893
H            3.16528466331494       -0.66955212046914       -2.02697762680840
H            2.93335919962348        0.88101238678792       -0.03596081690007
H           -0.59098026673903       -2.54059918804430        0.15482041301019
H            1.30988803448072       -5.62463242834220        3.33306541330899
H           -0.43394523120904       -5.86128822308603        3.37990401976953
H            0.30942950759833       -4.51414031898830        4.26152527189780
H            1.36562862936080       -2.57706726293765        1.23927238640109
H            1.32554219782548       -2.58159315720338        3.00007054116053
H            2.34043964407197       -3.74130334897610        2.13337134110536
H            1.28348767601295       -5.68089451129178        0.89986611372912
H           -0.47591795007303       -5.84034114556298        0.83783656104436
H            0.32625014910194       -4.54798718443564       -0.05106620736908
H           -1.90596491342912       -4.19118731393253        3.90628735229488
H           -3.97449839257859       -2.92190508310587        3.78891884484781
