  52
 
 O          7.7991677024       -0.8085097335        0.0786037415
 C          6.6643943950       -0.3436957228        0.0279026777
 C          6.3344320975        1.1053169298       -0.2120106321
 O          7.1629725712        1.9963969252       -0.3795791173
 C          4.8731400972        1.1987776900       -0.1937876441
 C          4.0030410906        2.2530742548       -0.3324893555
 C          2.6279588692        1.9799930577       -0.2586309113
 C          2.0996787964        0.7154729893       -0.0607624384
 C          0.6463615787        0.5260020578       -0.0470241530
 C         -0.1736741940        1.3630369229        0.7101848253
 C         -1.5405151201        1.1921370937        0.7276399223
 C         -2.1377034799        0.1831156166       -0.0320063531
 N         -3.5203046254        0.0084595536       -0.0201338224
 C         -4.0689712914       -1.2758138034       -0.1212305354
 C         -3.4581137905       -2.3579805724        0.5125418376
 C         -4.0043379932       -3.6222222231        0.4083415662
 C         -5.1655548182       -3.8270617164       -0.3192213604
 C         -5.7784685829       -2.7543669520       -0.9464987584
 C         -5.2369541694       -1.4871897699       -0.8538685736
 C         -4.3691115620        1.1167587691        0.0933466741
 C         -4.0605326888        2.3129453486       -0.5543711139
 C         -4.9016802964        3.4021992378       -0.4376108557
 C         -6.0607196676        3.3160151378        0.3167021787
 C         -6.3734228776        2.1283803813        0.9582267255
 C         -5.5360582520        1.0350552847        0.8529110484
 C         -1.3223407496       -0.6448490147       -0.8073739646
 C          0.0452986262       -0.4775832877       -0.8081507840
 C          2.9898236267       -0.3869300138        0.1153152207
 C          2.6835144053       -1.7368389409        0.4126919234
 C          3.6877167100       -2.6627283106        0.5624854318
 C          5.0542506327       -2.3428107149        0.4442146971
 C          5.3786687151       -1.0355810843        0.1822306324
 C          4.3478493310       -0.0882646573        0.0316196639
 H          4.3504519583        3.2605730617       -0.4994205624
 H          1.9416361238        2.8045448991       -0.3916001584
 H          0.2744758215        2.1351227728        1.3178015058
 H         -2.1585860024        1.8324826120        1.3393682493
 H         -2.5608749735       -2.1969671478        1.0920396690
 H         -3.5247832993       -4.4516569046        0.9064679473
 H         -5.5904921925       -4.8160125809       -0.3961245771
 H         -6.6809533857       -2.9064099460       -1.5194900180
 H         -5.7094990788       -0.6535653888       -1.3522239638
 H         -3.1640455494        2.3769825938       -1.1534780909
 H         -4.6546274292        4.3219377343       -0.9465568708
 H         -6.7163866931        4.1687157076        0.4034798169
 H         -7.2721193741        2.0547103787        1.5522430539
 H         -5.7749903393        0.1129093103        1.3620413213
 H         -1.7738676780       -1.4119490912       -1.4190571904
 H          0.6575270549       -1.1054034002       -1.4384230161
 H          1.6542426579       -2.0366263968        0.5402660358
 H          3.4261684954       -3.6863973518        0.7890193482
 H          5.8081556386       -3.1037712869        0.5702639369
