  106
 
 N         -2.2472191041        3.3368244568        0.4647970528
 C         -1.6567150176        2.3784083850        0.2394138703
 C         -0.9411137529        1.1802238562        0.0375965885
 C          0.4696656543        1.1612368775       -0.0316040856
 C          1.2721485932        2.3788663263       -0.1231238568
 C          0.8253443068        3.5105709750       -0.8050075356
 C          1.6113388920        4.6411984367       -0.8709662771
 C          2.8610118451        4.6688368215       -0.2540517119
 N          3.6511388765        5.8296723669       -0.3053358500
 C          3.1802551297        7.0359233752        0.2270452692
 C          1.9522407296        7.1379683924        0.8690901847
 C          1.5203948788        8.3484644080        1.3889905317
 C          2.3123485477        9.4743542368        1.2886739979
 C          3.5564003636        9.3813364132        0.6837128411
 C          3.9927213972        8.1756991462        0.1656708097
 O          5.2509441738        8.1570011965       -0.3818482201
 C          5.6976242899        6.9694011261       -0.9018412259
 C          6.9583463783        6.9713744745       -1.4701470340
 C          7.4667262132        5.8198018894       -2.0515236154
 C          6.6952853310        4.6757789454       -2.0790063731
 C          5.4316600404        4.6679205315       -1.5085122812
 C          4.9226245645        5.8020113931       -0.8875887902
 C          3.3211734967        3.5309006233        0.4086937416
 C          2.5391421477        2.3988418876        0.4639724639
 N          1.1428417426        0.0221305559        0.0112003725
 C          0.5201625639       -1.1453085913        0.0540720686
 C          1.3750867986       -2.3269110938        0.1428775192
 C          2.6400676402       -2.2912897289       -0.4478032380
 C          3.4696627601       -3.3892598141       -0.3984108313
 C          3.0603296730       -4.5477222146        0.2621291308
 N          3.8979834983       -5.6749805792        0.3060199381
 C          5.1709717213       -5.5966640122        0.8804347475
 C          5.6376974836       -4.4438929863        1.5002278488
 C          6.9043742927       -4.4013457050        2.0623505200
 C          7.7214716960       -5.5130239318        2.0276500491
 C          7.2562622609       -6.6834070744        1.4477466931
 C          5.9926990184       -6.7317274277        0.8878493499
 O          5.5910848823       -7.9359135344        0.3692759041
 C          4.3322056734       -8.0042050386       -0.1726804572
 C          3.9426039792       -9.2254128272       -0.6915371672
 C          2.7008451820       -9.3672124515       -1.2916740506
 C          1.8640149692       -8.2737744708       -1.3866564693
 C          2.2488848137       -7.0479934510       -0.8657036437
 C          3.4742160961       -6.8979885517       -0.2279160700
 C          1.8128896058       -4.5745227028        0.8837217877
 C          0.9793023381       -3.4782060976        0.8234900444
 C         -0.8885148414       -1.2260930458       -0.0154208419
 C         -1.5508778721       -2.4545620124       -0.2168377750
 N         -2.0985991914       -3.4382717816       -0.4411843400
 C         -1.6347572714       -0.0387129397        0.0104624804
 C         -3.0994904004       -0.0695950181        0.0078617275
 C         -3.8201644625        0.7310382026       -0.8768783511
 C         -5.1978651651        0.6984213068       -0.8856297846
 C         -5.8864960581       -0.1241802742        0.0038206707
 N         -7.2912944656       -0.1499891998        0.0025699291
 C         -7.9818041113       -1.3391277772       -0.2573648852
 C         -7.3303730588       -2.5226721375       -0.5819790237
 C         -8.0476377512       -3.6815992431       -0.8367412850
 C         -9.4267029969       -3.6753496715       -0.7845252789
 C        -10.0932950825       -2.4935142789       -0.4985384097
 C         -9.3828574090       -1.3343507834       -0.2462326075
 O        -10.1152565621       -0.1983389246       -0.0094930292
 C         -9.4243198973        0.9623731385        0.2319145584
 C        -10.1760904602        2.0969439618        0.4761457507
 C         -9.5527359832        3.3011199750        0.7664017317
 C         -8.1752179045        3.3543648354        0.8312877273
 C         -7.4166397706        2.2203089501        0.5844934744
 C         -8.0244289617        1.0150130956        0.2552254082
 C         -5.1687890154       -0.9200140964        0.8945698580
 C         -3.7907107057       -0.8986554295        0.8897807616
 H         -0.1255951974        3.4997724098       -1.3151784262
 H          1.2672075193        5.5096536533       -1.4122175900
 H          1.3281756358        6.2646994421        0.9743659843
 H          0.5589555518        8.3974129145        1.8761109053
 H          1.9787273917       10.4194905279        1.6867184812
 H          4.2109976742       10.2348131727        0.6083313729
 H          7.5238180483        7.8892129639       -1.4519925805
 H          8.4525789849        5.8297003301       -2.4885713121
 H          7.0663463859        3.7777429506       -2.5483778973
 H          4.8330938540        3.7719444123       -1.5567542763
 H          4.2889165605        3.5504203972        0.8875033880
 H          2.8842183149        1.5167353917        0.9806190157
 H          2.9456503495       -1.3939609499       -0.9631072872
 H          4.4354856962       -3.3663437849       -0.8809105940
 H          5.0036108747       -3.5730461920        1.5543116535
 H          7.2417210507       -3.4897727835        2.5311041309
 H          8.7097922585       -5.4835913187        2.4582401933
 H          7.8581999628       -7.5776359992        1.4243410320
 H          4.6313487858      -10.0519704293       -0.6205826783
 H          2.4037727516      -10.3242452626       -1.6902405202
 H          0.9034574856       -8.3602938511       -1.8702649219
 H          1.5897913317       -6.2003351045       -0.9667255273
 H          1.5077506026       -5.4582782919        1.4235829345
 H          0.0304977387       -3.5091472274        1.3368000482
 H         -3.2968961303        1.3570607813       -1.5846172214
 H         -5.7507812750        1.3041078240       -1.5875659565
 H         -6.2538973425       -2.5421054283       -0.6468951288
 H         -7.5131226244       -4.5867376464       -1.0798282046
 H         -9.9891159121       -4.5754154993       -0.9761427088
 H        -11.1702333813       -2.4468956451       -0.4722493579
 H        -11.2505365795        2.0136835256        0.4401728307
 H        -10.1471740595        4.1817636351        0.9515478804
 H         -7.6740373093        4.2773745287        1.0781210278
 H         -6.3420849228        2.2765206393        0.6590290879
 H         -5.6995239445       -1.5468251366        1.5950737830
 H         -3.2453423972       -1.5040446137        1.5987724328
