  110
 
 O          0.0162862023       -4.7861865332       -0.8211635626
 C          0.0009981307       -3.5256829714       -0.6269289441
 C         -1.2269467983       -2.7825395103       -0.8410053775
 C         -1.2559345181       -1.4267984135       -1.2310340585
 C         -2.4400977411       -0.7763873375       -1.4552561501
 C         -3.6766662120       -1.4415888600       -1.3315374403
 N         -4.8649515605       -0.7606149050       -1.4850557417
 C         -4.9054458479        0.6074697531       -1.8301475120
 C         -4.3538260217        1.0475878315       -3.0297539153
 C         -4.4332633037        2.3856978597       -3.3690399174
 C         -5.0667455887        3.2852637454       -2.5234236295
 C         -5.6246238050        2.8405339716       -1.3369702568
 C         -5.5492945119        1.5048429868       -0.9715617297
 Si        -6.2473374904        0.6911109986        0.5846715144
 C         -7.5130162364        1.7366541615        1.5089973500
 C         -8.6868318144        2.1498947587        0.8840378490
 C         -9.6149666611        2.9239991147        1.5566581042
 C         -9.3822553517        3.2995596909        2.8700088967
 C         -8.2187747363        2.8965154781        3.5047411568
 C         -7.2938371830        2.1215263267        2.8276312370
 C         -4.7790314402        0.1146526347        1.6363223855
 C         -4.8987346196       -0.9828885547        2.4846413162
 C         -3.8099467437       -1.4581186948        3.1929842853
 C         -2.5765109326       -0.8409083347        3.0650365882
 C         -2.4421675771        0.2570196289        2.2319419587
 C         -3.5341112537        0.7270239304        1.5251149173
 C         -6.9649325553       -0.8269261431       -0.2831676000
 C         -8.2088185148       -1.4068150777       -0.0836276626
 C         -8.6097355491       -2.5033432042       -0.8272576256
 C         -7.7677555371       -3.0237065566       -1.7995524964
 C         -6.5250537380       -2.4585635434       -2.0202712611
 C         -6.1184073385       -1.3695650161       -1.2559549680
 C         -3.6529473256       -2.8014489817       -0.9619211880
 C         -2.4672908008       -3.4506028605       -0.7500442502
 C          1.2051328950       -2.8476222967       -0.1924419949
 C          2.4635046990       -3.4430768002       -0.4335463115
 C          3.6289214443       -2.8601709027       -0.0173968074
 C          3.6147148113       -1.6603906751        0.7231214294
 N          4.7826474792       -1.0378453544        1.1104319869
 C          6.0567718367       -1.5326342539        0.7561571934
 C          6.4578548017       -2.8047429283        1.1533584627
 C          7.7190436736       -3.2617077916        0.8178137036
 C          8.5872128692       -2.4534363745        0.0977143996
 C          8.1940000949       -1.1787801238       -0.2713757114
 C          6.9314719405       -0.7015568769        0.0479014954
 Si         6.2477860914        1.0240464032       -0.2964966266
 C          4.8463660259        0.9053830221       -1.5668010654
 C          3.9093756954        1.9292575669       -1.6831027902
 C          2.8458387514        1.8256218855       -2.5609849217
 C          2.6999327372        0.6902709693       -3.3415059399
 C          3.6237001408       -0.3362375373       -3.2399194087
 C          4.6858127087       -0.2266210868       -2.3603675389
 C          7.5655438378        2.3024607834       -0.7228029144
 C          7.5041513256        3.0250258582       -1.9097739640
 C          8.4726132772        3.9627611028       -2.2219752291
 C          9.5225246869        4.1922669371       -1.3479988589
 C          9.5983543429        3.4794951201       -0.1620826874
 C          8.6272198670        2.5438207953        0.1454729241
 C          5.4545377440        1.2723743695        1.4023757364
 C          5.4869027239        2.4132368076        2.1904962084
 C          4.8618460671        2.4439201538        3.4252521191
 C          4.2003148857        1.3168751837        3.8924599605
 C          4.1603703800        0.1659275625        3.1280649593
 C          4.7809902470        0.1430046769        1.8816869999
 C          2.3605911812       -1.0699265299        0.9841174976
 C          1.1969420984       -1.6479041104        0.5522776305
 H         -0.3264269386       -0.8963869697       -1.3718782283
 H         -2.4209016764        0.2698719390       -1.7171064201
 H         -3.8819383374        0.3383375872       -3.6947235675
 H         -4.0076397034        2.7255033266       -4.3017440414
 H         -5.1264480096        4.3289666305       -2.7939419988
 H         -6.1191096955        3.5360408792       -0.6748532168
 H         -8.8706441506        1.8605488156       -0.1408327569
 H        -10.5216800701        3.2364320924        1.0582250416
 H        -10.1056864156        3.9049479102        3.3971494854
 H         -8.0333865361        3.1874717813        4.5290999139
 H         -6.3873211022        1.8089194323        3.3255692758
 H         -5.8565224022       -1.4740764068        2.5834096130
 H         -3.9191624701       -2.3162538410        3.8411698862
 H         -1.7225929549       -1.2172769773        3.6101941488
 H         -1.4823525107        0.7434578648        2.1287053881
 H         -3.4197164479        1.5800594712        0.8714823922
 H         -8.8633113681       -0.9937436000        0.6699124917
 H         -9.5782264053       -2.9500150385       -0.6577833955
 H         -8.0828853928       -3.8678140830       -2.3951385645
 H         -5.8756584940       -2.8455811130       -2.7926094378
 H         -4.5788595571       -3.3356333813       -0.8171959802
 H         -2.4555885992       -4.4946588076       -0.4714779269
 H          2.4811290814       -4.3681620135       -0.9919362359
 H          4.5684313036       -3.3198811920       -0.2808829601
 H          5.7903449181       -3.4205055362        1.7392000969
 H          8.0284283137       -4.2487761348        1.1286656608
 H          9.5698322702       -2.8166437744       -0.1644063473
 H          8.8693594004       -0.5403021376       -0.8218117680
 H          4.0152137138        2.8149954130       -1.0727896062
 H          2.1260671610        2.6286017887       -2.6359618232
 H          1.8667006552        0.6030888171       -4.0243058176
 H          3.5111015575       -1.2271379407       -3.8417319020
 H          5.3992271673       -1.0348681736       -2.2835039831
 H          6.6874950747        2.8482283885       -2.5947470598
 H          8.4097558500        4.5159946315       -3.1484274240
 H         10.2798900718        4.9239253280       -1.5905239373
 H         10.4162281750        3.6550925853        0.5223431696
 H          8.6900110136        1.9897135727        1.0711828980
 H          6.0047102687        3.2870437725        1.8230090720
 H          4.8910404949        3.3402852653        4.0267170210
 H          3.7222705461        1.3308164145        4.8609007671
 H          3.6667944720       -0.7222239585        3.4964931892
 H          2.3140010614       -0.1342694997        1.5195308028
 H          0.2526517245       -1.1891766405        0.8019915119
