  121
 
 C         -8.5797947166       -4.0466254845       -0.6360535955
 C         -7.2352849004       -4.7249112486       -0.3141084105
 C         -7.4490208547       -6.2227513277       -0.0278214120
 C         -6.3234261512       -4.5837287557       -1.5167485837
 C         -6.7143383734       -5.1144667236       -2.7383226542
 C         -5.9333555556       -4.9969571857       -3.8730436183
 C         -4.7298279976       -4.3176194100       -3.7998092397
 C         -4.3159297317       -3.7821509035       -2.5994274893
 C         -5.0926350285       -3.9208691252       -1.4437173731
 N         -4.6431478929       -3.3828039417       -0.2501640687
 C         -3.3536850769       -2.7846887930       -0.2105086269
 C         -2.2132962512       -3.5994259004       -0.2216452790
 C         -0.9745551803       -3.0199146202       -0.1774508929
 C         -0.8299710506       -1.6240906582       -0.1102171290
 C         -1.9760378777       -0.7939081569       -0.0959610877
 C         -3.2318054882       -1.4131918600       -0.1551977524
 C         -1.8130714985        0.6375778123       -0.0145566800
 C         -2.8974106564        1.5250705192        0.0069773058
 C         -2.7087575125        2.8863916750        0.1071491183
 N         -3.8310991229        3.7587845962        0.1433100466
 C         -4.1293126514        4.5089297247       -0.9811392139
 C         -3.3827582101        4.3267771459       -2.1505760687
 C         -3.6466466545        5.0674622024       -3.2822826077
 C         -4.6680058295        6.0012525575       -3.2722572957
 C         -5.4230181914        6.1661299560       -2.1258983159
 C         -5.1808191986        5.4329140057       -0.9724507201
 C         -6.0591248981        5.6427363434        0.2451103805
 C         -7.5149682923        5.3197274611       -0.1390031033
 C         -5.9396946879        7.1106567806        0.6946695579
 C         -5.6485958672        4.7501929362        1.3998745061
 C         -6.3533758559        4.8122062188        2.5941952377
 C         -6.0112000097        4.0414275319        3.6895715538
 C         -4.9243813326        3.1890769059        3.6042912855
 C         -4.2062540471        3.1073327984        2.4310016322
 C         -4.5630289335        3.8700789368        1.3134303624
 C         -1.4151881029        3.4209090401        0.1793163745
 C         -0.3382036885        2.5774575449        0.1469258085
 C         -0.5102679317        1.1862533257        0.0536694330
 C          0.6439420046        0.3433928230        0.0311538035
 N          1.8647109500        0.8711376807        0.0885342633
 C          2.9477609623        0.0919929135        0.0596817461
 C          4.2356180854        0.6229339519        0.1157981819
 C          5.3510537334       -0.2031043803        0.0853274628
 N          6.6596247787        0.3441256889        0.1411291437
 C          7.3150757334        0.6244186608       -1.0440844023
 C          6.6180800507        0.5371628484       -2.2538264526
 C          7.2452971886        0.8053029569       -3.4507378635
 C          8.5819507651        1.1650883005       -3.4615040286
 C          9.2719388845        1.2531358350       -2.2665032444
 C          8.6654991247        0.9925549021       -1.0457368704
 C          9.4759157973        1.0836996109        0.2315057056
 C         10.5945756727        0.0268878105        0.1701993784
 C         10.0766343975        2.4970610934        0.3411635865
 C          8.6324913092        0.8124474910        1.4608911114
 C          9.2060706106        0.8943986309        2.7219298206
 C          8.4844384253        0.6394129683        3.8734890350
 C          7.1482890174        0.2908442831        3.7763286747
 C          6.5533370963        0.1981582783        2.5372585872
 C          7.2829721811        0.4522586783        1.3710823329
 C          5.1771884606       -1.5827640660       -0.0015787900
 Br         6.7185373798       -2.7003228697       -0.0447395185
 C          3.9179050625       -2.1511584131       -0.0570702667
 C          2.7842864216       -1.3390873856       -0.0284376450
 N          1.5544207737       -1.8539255147       -0.0769484290
 C          0.4836159188       -1.0636798249       -0.0530206329
 C         -5.3897390879       -3.4565828143        0.9136855718
 C         -4.8799960237       -2.9197871510        2.1011900757
 C         -5.6068818729       -2.9678061471        3.2709241007
 C         -6.8571536379       -3.5608557641        3.2820040079
 C         -7.3544389394       -4.1115402532        2.1156195827
 C         -6.6447723068       -4.0774451329        0.9230615697
 H         -8.4216395786       -2.9887630260       -0.8376149435
 H         -9.0419947850       -4.4966753480       -1.5100984221
 H         -9.2700517233       -4.1374189604        0.1978967992
 H         -8.1143777340       -6.3648138445        0.8191765657
 H         -6.4957679514       -6.6953793210        0.2015923000
 H         -7.8819694951       -6.7241642888       -0.8888788937
 H         -7.6563809414       -5.6361796919       -2.8132492485
 H         -6.2660225230       -5.4249046268       -4.8062424443
 H         -4.1121004632       -4.2015235083       -4.6775979366
 H         -3.3813955995       -3.2451213827       -2.5514619873
 H         -2.3292601531       -4.6717154110       -0.2662634181
 H         -0.0764050179       -3.6176480108       -0.1843759903
 H         -4.1368882967       -0.8264170569       -0.1488435767
 H         -3.9106956061        1.1591374466       -0.0462244121
 H         -2.5916116626        3.5934008527       -2.1682541624
 H         -3.0549299389        4.9124187977       -4.1719187341
 H         -4.8811998636        6.5907749982       -4.1507199570
 H         -6.2244298804        6.8892339554       -2.1366768629
 H         -8.1820612732        5.4715218786        0.7048694190
 H         -7.5923195821        4.2812576154       -0.4557104207
 H         -7.8505277511        5.9528984635       -0.9554759763
 H         -6.2358318316        7.7858861989       -0.1032434141
 H         -4.9092646491        7.3315431114        0.9669782559
 H         -6.5710668352        7.3049249021        1.5571771767
 H         -7.1947644445        5.4830426054        2.6793541909
 H         -6.5827987527        4.1126892346        4.6021839881
 H         -4.6315845386        2.5881153539        4.4520723413
 H         -3.3531906768        2.4492011642        2.3768322603
 H         -1.2878596755        4.4900443563        0.2571674061
 H          0.6708411854        2.9557698788        0.1996226906
 H          4.3609971605        1.6920378091        0.1818566964
 H          5.5759810413        0.2560171444       -2.2494474759
 H          6.6903749868        0.7305021264       -4.3737531970
 H          9.0853254886        1.3726055143       -4.3933413096
 H         10.3155703343        1.5271960535       -2.2932999257
 H         10.1577821555       -0.9670428599        0.0938723291
 H         11.2104672619        0.0641367948        1.0645711259
 H         11.2326323983        0.1895363184       -0.6941229383
 H         10.6818669179        2.5938235547        1.2378203970
 H         10.7058117342        2.7197430346       -0.5156974940
 H          9.2788128871        3.2363442984        0.3833807253
 H         10.2485265922        1.1582147521        2.8151047531
 H          8.9627828768        0.7099766386        4.8383597860
 H          6.5686370639        0.0885912678        4.6643467008
 H          5.5112702048       -0.0739261738        2.4652721965
 H          3.7934715238       -3.2196695633       -0.1243147682
 H         -3.9011361255       -2.4663784184        2.1042125748
 H         -5.1935399816       -2.5439605298        4.1737589441
 H         -7.4370006273       -3.6026558276        4.1912288069
 H         -8.3247779029       -4.5837019091        2.1420667779
