  88
 
 O          6.4813888004       -4.5578366201       -0.5615769595
 C          6.3830245583       -3.3620351758       -0.3209940670
 C          7.5836402041       -2.5204639809       -0.0970399666
 C          8.6944784687       -3.0840631226        0.5288967535
 C          9.8361393652       -2.3329600475        0.7347184920
 C          9.8889047384       -1.0193784249        0.2947137112
 C          8.7984850316       -0.4603512820       -0.3533585657
 C          7.6472664705       -1.2021393019       -0.5465396678
 C          5.0645306709       -2.6972566987       -0.2439204334
 C          4.8330997983       -1.5994624908        0.5867965850
 C          3.5799447746       -1.0280947408        0.6558169552
 C          2.5305106053       -1.5304235760       -0.1159169786
 N          1.2694374056       -0.9378768518       -0.0610442769
 C          1.0054979349        0.4190562525       -0.1431631375
 C          1.8719221949        1.4861657240       -0.3370563165
 C          1.3362116875        2.7540950419       -0.4253043257
 C         -0.0440912239        2.9821543706       -0.3223938202
 N         -0.5397704078        4.2927055547       -0.4114376698
 C         -1.7170489851        4.5442515099       -1.1235469864
 C         -2.6219264918        5.5103596882       -0.6815738374
 C         -3.7798462839        5.7590848285       -1.3929087284
 C         -4.0631780674        5.0457644060       -2.5466226571
 C         -3.1727134502        4.0791518042       -2.9858517283
 C         -2.0077729789        3.8297854176       -2.2865011415
 C          0.1478662354        5.3377603062        0.2136874390
 C          0.2191193696        6.5984072238       -0.3806929758
 C          0.8991346028        7.6263274076        0.2432927607
 C          1.5281688405        7.4165097432        1.4601696658
 C          1.4677078073        6.1648649382        2.0515239578
 C          0.7815770062        5.1333830416        1.4401394697
 C         -0.9144295925        1.9117329570       -0.1521956342
 C         -0.3902260035        0.6306503272       -0.0774704665
 C         -0.9948745033       -0.6662831287        0.0584310121
 C         -2.3112109352       -1.0849585344        0.1756929514
 C         -2.5704970934       -2.4422282076        0.3262942340
 N         -3.8900832017       -2.9049070103        0.4485953901
 C         -4.8186071148       -2.1791957208        1.2016054232
 C         -4.4253221117       -1.5147289604        2.3640737582
 C         -5.3462251799       -0.7970516026        3.1026053090
 C         -6.6718719741       -0.7341944297        2.7040348975
 C         -7.0688831166       -1.3930881789        1.5514579608
 C         -6.1534061034       -2.1053237301        0.8010140978
 C         -4.2655698073       -4.0950201170       -0.1834109587
 C         -3.7435061231       -4.4254526757       -1.4347159994
 C         -4.1046562432       -5.6076808867       -2.0514021820
 C         -4.9957395647       -6.4752026215       -1.4403132325
 C         -5.5207194045       -6.1507131945       -0.1995557799
 C         -5.1587724623       -4.9749878858        0.4290370608
 C         -1.5087040751       -3.3580918511        0.3725765815
 C         -0.1958979053       -2.9565854494        0.2406767294
 C          0.0618276265       -1.6044671364        0.0601233611
 C          2.7557323014       -2.6348072498       -0.9400871643
 C          4.0034981254       -3.2163459604       -0.9883893501
 H          8.6380176308       -4.1123676261        0.8563081193
 H         10.6876231990       -2.7732288538        1.2321749157
 H         10.7829461446       -0.4338187402        0.4503081582
 H          8.8463088877        0.5579247563       -0.7101631233
 H          6.8051489988       -0.7713391290       -1.0678028252
 H          5.6302317364       -1.2163382756        1.2058730168
 H          3.3977860072       -0.2012665744        1.3251070588
 H          2.9352548188        1.3375012666       -0.4410547402
 H          1.9903743945        3.5985353294       -0.5840199700
 H         -2.4109041149        6.0616642305        0.2233260537
 H         -4.4706588223        6.5103274505       -1.0378907540
 H         -4.9703382817        5.2414295361       -3.0986015604
 H         -3.3821256514        3.5198873658       -3.8863998298
 H         -1.3123390951        3.0813148533       -2.6376956282
 H         -0.2601483529        6.7635915723       -1.3347934256
 H          0.9460504193        8.5966239367       -0.2298775057
 H          2.0612091110        8.2217388580        1.9431618816
 H          1.9507551286        5.9923040006        3.0025628299
 H          0.7269514913        4.1620964014        1.9098611083
 H         -1.9793289963        2.0763385311       -0.0897978988
 H         -3.1206016987       -0.3711183119        0.1589643547
 H         -3.3948594722       -1.5692036720        2.6840786050
 H         -5.0273937248       -0.2902758497        4.0021197606
 H         -7.3895602578       -0.1760942201        3.2865010077
 H         -8.0987886828       -1.3447320274        1.2280713650
 H         -6.4651279872       -2.6088047232       -0.1026941968
 H         -3.0551693431       -3.7473362813       -1.9180249881
 H         -3.6936779425       -5.8489673572       -3.0211318684
 H         -5.2784137969       -7.3968831184       -1.9265245122
 H         -6.2115903057       -6.8233384446        0.2880608760
 H         -5.5619250056       -4.7313507787        1.4013301505
 H         -1.7325942650       -4.4041753655        0.5203265126
 H          0.6021517578       -3.6801905091        0.3008621940
 H          1.9529738173       -3.0175292547       -1.5513064968
 H          4.1881980340       -4.0714736726       -1.6222091939
