  75
 
 N         -6.8310917996        4.3762654201        2.3235875011
 C         -5.8006947360        4.0735040186        1.9139857711
 C         -4.5376989938        3.7038059105        1.4143841261
 C         -3.8346088249        2.6422823651        1.9931172055
 C         -2.6008125622        2.2830786828        1.5029235830
 C         -2.0335746218        2.9663786243        0.4194254746
 N         -0.7945449823        2.5948381405       -0.0747838836
 C          0.0669924630        3.5481829944       -0.6524013961
 C          0.7644819255        3.2394796376       -1.8180526728
 C          1.6249864413        4.1658476603       -2.3768171220
 C          1.7960942880        5.4070677634       -1.7855840074
 C          1.1004838156        5.7181788909       -0.6283311701
 C          0.2425167457        4.7957586850       -0.0587217844
 C         -0.3691708796        1.2604878267       -0.0227455386
 C         -1.2546680226        0.2253900758       -0.3126793050
 C         -0.8169670264       -1.0933349185       -0.2770497342
 N         -1.7055014149       -2.1322762474       -0.5804140009
 C         -1.4726421495       -3.1580468821       -1.4783583485
 C         -0.3833135522       -3.3775566364       -2.3096580792
 C         -0.4186111185       -4.4790618598       -3.1439301212
 C         -1.5121319002       -5.3422385195       -3.1642503893
 C         -2.6098274405       -5.1148933833       -2.3579822763
 C         -2.5976941191       -4.0134487651       -1.5116732236
 C         -3.5511375891       -3.4723558207       -0.5829588537
 C         -4.8172542296       -3.8710967547       -0.1738218626
 C         -5.4760018150       -3.1138082474        0.7745870521
 C         -4.8808277817       -1.9805290209        1.3247023853
 C         -3.6212737331       -1.5660540192        0.9348428166
 C         -2.9637382979       -2.3088683863       -0.0352381769
 C          0.5085851479       -1.3831003335        0.0310661084
 C          1.3947740018       -0.3476584688        0.3113119716
 N          2.7283104057       -0.6326933176        0.6260780511
 C          3.8374233242       -0.0257462350        0.0651909069
 C          3.9112553788        0.9429904157       -0.9256757770
 C          5.1654630620        1.3619849390       -1.3276649629
 C          6.3249624961        0.8278734380       -0.7696827666
 C          6.2583631507       -0.1528388967        0.2001919763
 C          5.0086661307       -0.5888757470        0.6215619840
 C          4.5767464948       -1.5763560739        1.5717749508
 C          5.2527612347       -2.4310048226        2.4332155152
 C          4.5163805606       -3.2590928668        3.2571466855
 C          3.1234701359       -3.2296490544        3.2405719197
 C          2.4289538814       -2.3883014560        2.3917597004
 C          3.1632516569       -1.5730987400        1.5419487384
 C          0.9551194311        0.9706331087        0.2940871598
 C         -2.7398843088        4.0338579315       -0.1492476645
 C         -3.9731393396        4.3982044922        0.3394168636
 H         -4.2624290368        2.1161956779        2.8339328171
 H         -2.0506761483        1.4781541838        1.9668039151
 H          0.6209808563        2.2746619518       -2.2830528154
 H          2.1592386128        3.9190053098       -3.2824734903
 H          2.4675699522        6.1289662433       -2.2250237036
 H          1.2323176360        6.6823659680       -0.1600701390
 H         -0.2924947334        5.0345735619        0.8489101865
 H         -2.2738038001        0.4468810788       -0.5896811082
 H          0.4626468684       -2.7070776930       -2.3173437812
 H          0.4192168459       -4.6724502448       -3.7979058205
 H         -1.5007083420       -6.1939906773       -3.8283512431
 H         -3.4650504217       -5.7734515919       -2.3858767629
 H         -5.2721122528       -4.7578288360       -0.5893250339
 H         -6.4628145267       -3.4046715310        1.1037596749
 H         -5.4149717430       -1.4149909336        2.0743766622
 H         -3.1654629536       -0.6957455295        1.3800206943
 H          0.8479501492       -2.4063173982        0.0487749792
 H          3.0220976538        1.3558143121       -1.3761355033
 H          5.2482756567        2.1189604419       -2.0937235412
 H          7.2870174312        1.1828345226       -1.1090207639
 H          7.1567080171       -0.5776817539        0.6225452093
 H          6.3321879407       -2.4403457764        2.4585289372
 H          5.0226791319       -3.9329780852        3.9326394871
 H          2.5731372946       -3.8761562086        3.9086411576
 H          1.3498563792       -2.3618465113        2.4035580584
 H          1.6361932638        1.7696519421        0.5419612192
 H         -2.3140835734        4.5672025858       -0.9855318353
 H         -4.5166990913        5.2161614428       -0.1100957858
