  52
 
 N         -1.8821000749        6.3031416157       -0.7015076636
 C         -1.3286188381        5.3201175626       -0.4955623628
 C         -0.6609967736        4.1007314761       -0.2423289996
 C         -1.3013756565        2.8915115289       -0.4872587772
 C         -0.6589750629        1.6802540079       -0.2541743413
 N         -1.3125917687        0.4915713222       -0.5610859329
 C         -2.5904796833        0.1204552737       -0.1569390916
 C         -3.5119649926        0.8160260927        0.6084068255
 C         -4.7163592954        0.1955410017        0.8900365546
 C         -4.9990750215       -1.0883980225        0.4315440947
 C         -4.0742169399       -1.7963484284       -0.3111103316
 C         -2.8590560087       -1.1915961256       -0.6061042663
 C         -1.6873047161       -1.6322198605       -1.3105970941
 C         -1.3014130298       -2.7816642931       -1.9809971907
 C         -0.0375970582       -2.7906455620       -2.5544684908
 C          0.7725646749       -1.6652095549       -2.4578687174
 N          0.4327559017       -0.5529995981       -1.8206352100
 C         -0.7589743202       -0.5635171835       -1.2493740774
 C          0.6589776902        1.6802735138        0.2535594619
 N          1.3127049430        0.4915463857        0.5601474497
 C          2.5904189842        0.1202733719        0.1557397455
 C          3.5114979195        0.8154843299       -0.6104163730
 C          4.7157416404        0.1948522940       -0.8923448470
 C          4.9986808531       -1.0888547222       -0.4333160058
 C          4.0742506390       -1.7964010208        0.3102549027
 C          2.8592183487       -1.1915213014        0.6055347429
 C          1.6877702433       -1.6317590283        1.3107806637
 C          1.3021921878       -2.7807153624        1.9821996362
 C          0.0385843361       -2.7893416220        2.5561387338
 C         -0.7717583661       -1.6640896798        2.4588876613
 N         -0.4322581535       -0.5523252574        1.8207096387
 C          0.7593459322       -0.5631489420        1.2491934547
 C          1.3011434091        2.8914915719        0.4874074662
 C          0.6603464441        4.1007350238        0.2436947835
 C          1.3274369877        5.3201063954        0.4984307042
 N          1.8804897846        6.3030723371        0.7057356963
 H         -2.3002002564        2.8953130851       -0.8973590826
 H         -3.2987938197        1.8015476343        0.9918460405
 H         -5.4508424634        0.7195087027        1.4827926138
 H         -5.9511466709       -1.5374245724        0.6703712809
 H         -4.2829188747       -2.7987869585       -0.6520510182
 H         -1.9583143172       -3.6352498828       -2.0581178880
 H          0.3186200522       -3.6595381178       -3.0846668990
 H          1.7533156751       -1.6444860255       -2.9132431123
 H          3.2980626634        1.8008253777       -0.9941841438
 H          5.4499181064        0.7184765486       -1.4857842883
 H          5.9506136190       -1.5380237060       -0.6724339407
 H          4.2831681224       -2.7986439784        0.6516420938
 H          1.9591889796       -3.6341846926        2.0597914631
 H         -0.3173393746       -3.6578221050        3.0872084525
 H         -1.7523784933       -1.6431268377        2.9145343494
 H          2.3000408925        2.8951839881        0.8973446357
