53
 xtb: 6.7.1 (edcfbbe)
C           -5.02502790348522       -0.54934630739179        1.74753819450099
C           -4.43742378183112       -0.27704366412837        0.34490887482598
C           -5.57124315563316       -0.22090054087335       -0.70196186262238
C           -3.73133208545730        1.05951152208714        0.37340837340549
C           -4.44848874597673        2.21247127559378        0.66378442872601
C           -3.84315405441786        3.45489457842339        0.72036224633522
C           -2.47663207871990        3.56534324404617        0.49482015632605
C           -1.73762501281455        2.44130458752285        0.20918145132404
C           -2.34956840611087        1.17832412015156        0.13303326595041
N           -1.58485086526818        0.07353714574670       -0.16554414280236
C           -0.18356891009898        0.23259039712204       -0.35648525837197
C            0.32539987635842        0.71096171338946       -1.57083983977906
C            1.67523797726680        0.85541351790362       -1.73939050534742
C            2.59050675288309        0.51007659738126       -0.71044942989189
C            3.99063926874827        0.72026734232033       -0.94660611478621
O            4.38825466625832        1.43370548279950       -1.92498314303773
C            4.99052323025492        0.12384274375083       -0.05288098965649
C            6.19673425864146        0.80346072348649        0.16527668272838
C            7.16950215541480        0.26523685016836        0.98094250620435
C            6.97750230825334       -0.97264348084993        1.57894191777074
C            5.80597190612003       -1.67514206010761        1.33322755646648
C            4.82365784290424       -1.14218285607899        0.52317204150778
C            2.05057989717769        0.07802769267820        0.52285168296620
C            0.69714529841954       -0.06723016996475        0.68953331998549
C           -2.12879079353307       -1.18714246076051       -0.25633470659222
C           -1.30438503044588       -2.26838393992342       -0.61255274091975
C           -1.81356081085506       -3.54268043171349       -0.70046534278399
C           -3.15939500604106       -3.76756662267415       -0.43946254174433
C           -3.97990524161020       -2.70476277482635       -0.10641029802999
C           -3.49695408920255       -1.40638599899330       -0.01265365850094
H           -5.78219196464573        0.24912014460540        1.95462245533880
H           -4.30772546182892       -0.57490898109010        2.46429866870048
H           -5.61314083451053       -1.48491511701342        1.70127241370553
H           -5.09021983860945       -0.02626369999996       -1.73935287444133
H           -6.25342367678211        0.56629483458952       -0.55272521891363
H           -6.07494324091715       -1.16441157978248       -0.81845365020873
H           -5.51980689866134        2.14895219373365        0.80949717533383
H           -4.44053067182331        4.33284928909613        0.92494082857308
H           -1.99288866548367        4.52436251458831        0.57113911580810
H           -0.67364781895469        2.51959883652175        0.08709976684171
H           -0.36632910943395        0.98676297232380       -2.34214651921483
H            2.07683661537108        1.26026263093822       -2.64538090040611
H            6.34108796650367        1.76641470496639       -0.30631490314381
H            8.09627281020921        0.79623484883225        1.13154957484882
H            7.75575114269476       -1.42260932324775        2.17205813548444
H            5.67474307464223       -2.67656804173150        1.72122390105315
H            3.94110610034976       -1.72303251351412        0.27796834788860
H            2.71686809489131       -0.12167289464491        1.35899629198298
H            0.30633763725604       -0.41834422139113        1.64584003176697
H           -0.25273739504083       -2.09311262179402       -0.77256298505886
H           -1.15192257243582       -4.36861018901364       -0.91360044471612
H           -3.55736988081313       -4.77115617547207       -0.46304959575183
H           -5.02311184520816       -2.90056266213761        0.08520945082535
