  134
 
 C        -14.3324732375        3.4529887432       -2.0528628622
 C        -14.8507825688        2.2021903698       -2.3484659710
 C        -14.3070550096        1.0665013596       -1.7798252315
 C        -13.2339467415        1.1686143652       -0.8939548794
 N        -12.6813342209        0.0226460562       -0.3099530501
 C        -13.5058170062       -1.0432509419        0.0684035282
 C        -14.7737134124       -0.8058001643        0.6001487884
 C        -15.5836918349       -1.8630904827        0.9673572236
 C        -15.1439737717       -3.1691635419        0.8211965739
 C        -13.8837208639       -3.4106170323        0.2979557709
 C        -13.0700483249       -2.3604451886       -0.0808504355
 C        -11.2999420730       -0.0578376938       -0.1052361568
 C        -10.7854036726       -0.6606707571        1.0437623597
 C         -9.4225218462       -0.7446290364        1.2380098082
 C         -8.5305423872       -0.2214749090        0.3029486101
 C         -7.0748121144       -0.3087142702        0.5190808236
 C         -6.4447806992       -1.5656749955        0.5503431270
 C         -7.1646301575       -2.7664118509        0.3245134179
 C         -6.5433330881       -3.9806964149        0.3310494048
 C         -5.1559454864       -4.0636382888        0.5395657992
 C         -4.4240950160       -2.9294871952        0.7387574793
 C         -5.0347266944       -1.6509694262        0.7668464836
 C         -4.2765612165       -0.4772523552        0.9417561060
 C         -2.8326626656       -0.5729292446        1.1977917557
 C         -2.3944063522       -1.1540461138        2.3883210016
 C         -1.0591244967       -1.2068804930        2.7128176409
 C         -0.0853533624       -0.7019598344        1.8330938206
 C          1.2923135735       -0.7083810617        2.1490263623
 C          2.2231881981       -0.2448423993        1.2662443121
 C          1.8520210136        0.2442132870       -0.0079381336
 C          2.8161004284        0.7362220457       -0.9360916050
 C          4.2422543239        0.5914473511       -0.7344348261
 C          5.0817771675        1.7433269769       -0.7871719438
 C          4.5451556433        3.0397737982       -0.8657331644
 C          5.3546349610        4.1514567190       -0.9800205684
 C          6.7360564639        4.0001801434       -1.0227424726
 C          7.2953002899        2.7492824787       -0.8731260945
 C          6.4983952814        1.6027489903       -0.6920662393
 C          7.0696550665        0.3256559540       -0.4495845090
 C          8.5175397735        0.1909194486       -0.3039177574
 C          9.2500953671       -0.6778965351       -1.1207678681
 C         10.6158452637       -0.7955190471       -0.9948369040
 C         11.3067309946       -0.0621883216       -0.0252509769
 N         12.6877300517       -0.1867405750        0.1129100865
 C         13.4615974636        0.9240564742        0.4739342842
 C         13.1619698768        2.1892832131       -0.0321368440
 C         13.9280150931        3.2811794585        0.3278366668
 C         15.0043632151        3.1305873276        1.1877487394
 C         15.3087523139        1.8750654686        1.6896428223
 C         14.5446154884        0.7780152842        1.3412289538
 C         13.3096926504       -1.4222850498       -0.1085410352
 C         14.5530009648       -1.4832056611       -0.7385947401
 C         15.1661327389       -2.7031273179       -0.9496045283
 C         14.5507972516       -3.8773751615       -0.5453743015
 C         13.3143825925       -3.8222832869        0.0782823130
 C         12.6965466116       -2.6068172790        0.3009351250
 C         10.5811533718        0.8000367543        0.8025766145
 C          9.2187449032        0.9298746739        0.6557985331
 C          6.2360070100       -0.8207538407       -0.3588724840
 C          6.7593833926       -2.0940578119       -0.0621264215
 C          5.9666682571       -3.2205969343       -0.0747087438
 C          4.6172028418       -3.1141605921       -0.3952852734
 C          4.0619721627       -1.8734686459       -0.6248725854
 C          4.8277752508       -0.6978459064       -0.5511680751
 C          2.3580329192        1.3709591956       -2.1037216428
 C          1.0271460457        1.4320544625       -2.4176290277
 C          0.0505960863        0.9051998917       -1.5469475687
 C         -1.3250869115        0.9294063366       -1.8577368613
 C         -2.2573639098        0.4430960445       -0.9875460628
 C         -1.8798336202       -0.0817638756        0.2725651527
 C         -0.4988921532       -0.1533080270        0.5935219731
 C          0.4712357902        0.3302937968       -0.3210293423
 C         -4.9101855158        0.7810886944        0.9138870477
 C         -4.1922211328        1.9787945203        1.1552765519
 C         -4.8135396726        3.1930194260        1.1564655025
 C         -6.1993844895        3.2772155917        0.9374608303
 C         -6.9300823591        2.1450683678        0.7267034774
 C         -6.3204936817        0.8649786786        0.6996135870
 C         -9.0492901504        0.3863668250       -0.8394070487
 C        -10.4107954913        0.4632713090       -1.0465333298
 C        -12.7175920068        2.4307414711       -0.5981483830
 C        -13.2627564992        3.5596887669       -1.1784298090
 H        -14.7584413528        4.3380379321       -2.5010500808
 H        -15.6796919604        2.1085345839       -3.0349347390
 H        -14.7066457496        0.0920964025       -2.0204855905
 H        -15.1152964440        0.2113960532        0.7257087261
 H        -16.5625264216       -1.6648534898        1.3793928972
 H        -15.7786403817       -3.9923987172        1.1128715196
 H        -13.5340722158       -4.4254420954        0.1748991776
 H        -12.0927487529       -2.5522416922       -0.4995454723
 H        -11.4634243879       -1.0572748468        1.7854001443
 H         -9.0369089507       -1.2027161351        2.1375982370
 H         -8.2256690781       -2.7045954745        0.1346292097
 H         -7.1107368327       -4.8840739454        0.1590045704
 H         -4.6710293771       -5.0291572573        0.5243736466
 H         -3.3538641284       -2.9930683043        0.8684024429
 H         -3.1329417187       -1.5336614504        3.0813358621
 H         -0.7444233612       -1.6274822082        3.6572455881
 H          1.5991202102       -1.0893845764        3.1130938032
 H          3.2694837559       -0.2507324087        1.5346920848
 H          3.4738134735        3.1683670132       -0.8323990791
 H          4.9125591140        5.1348710150       -1.0468329215
 H          7.3724411092        4.8631322907       -1.1558776491
 H          8.3690403523        2.6433303905       -0.8988160768
 H          8.7363231556       -1.2330449955       -1.8921819796
 H         11.1651519470       -1.4483126094       -1.6575396905
 H         12.3313299123        2.3064614108       -0.7127457540
 H         13.6878194589        4.2550276069       -0.0732076290
 H         15.6022083009        3.9858126122        1.4645404831
 H         16.1424957029        1.7498265147        2.3648506495
 H         14.7773718404       -0.1981285179        1.7411424797
 H         15.0293184041       -0.5696388663       -1.0634872273
 H         16.1275645900       -2.7375197084       -1.4408466712
 H         15.0318301833       -4.8289565135       -0.7144520604
 H         12.8306190795       -4.7322512474        0.4021333941
 H         11.7390487780       -2.5647512282        0.7993435118
 H         11.0972349202        1.3571952194        1.5708290218
 H          8.6712714726        1.5829128545        1.3199215142
 H          7.8065029521       -2.1861383178        0.1827298826
 H          6.3959933327       -4.1856487147        0.1524212518
 H          3.9994690190       -3.9986188507       -0.4509216263
 H          3.0107698603       -1.8018417323       -0.8591957335
 H          3.0915009485        1.7482594942       -2.8030607090
 H          0.7086947494        1.8682183657       -3.3539436007
 H         -1.6321649971        1.3439386279       -2.8079991597
 H         -3.3052819722        0.4603794161       -1.2490595024
 H         -3.1313684289        1.9163577316        1.3466768934
 H         -4.2464190107        4.0941546267        1.3401743586
 H         -6.6832126793        4.2433375886        0.9526200444
 H         -7.9986739547        2.2108361427        0.5873607743
 H         -8.3712989991        0.7829266024       -1.5816384787
 H        -10.7968737459        0.9231799467       -1.9446196782
 H        -11.8912876368        2.5183258992        0.0922848843
 H        -12.8547999545        4.5308428311       -0.9384097651
