  70
 
 O         -4.1911104032       -3.9770076557        1.2289725130
 C         -3.0121006602       -4.2370633125        1.3366798549
 C         -1.9309594090       -3.2633150110        1.4254506055
 C         -2.1777014578       -1.9388273231        1.5076177203
 C         -1.0488710184       -0.9845127579        1.6529672734
 C          0.1769384677       -1.4333186090        0.8515499348
 C          0.0848975345       -1.3416530883       -0.6553690233
 C          0.7473407726       -2.3251792904       -1.3999091617
 C          0.7237027593       -2.3598906903       -2.7791315607
 C          0.0142310216       -1.4008468032       -3.4818241225
 C         -0.6475544557       -0.4195480810       -2.7749434894
 C         -0.6102831478       -0.3694056599       -1.3803025334
 N         -1.3340694666        0.6921447319       -0.7508346002
 C         -2.7133160754        0.4791276191       -0.5871224636
 C         -3.3380124079       -0.6551157284       -1.1054135434
 C         -4.6926427107       -0.8719854857       -0.9230786918
 C         -5.4634200432        0.0419123577       -0.2276600354
 C         -4.8616782572        1.1732016738        0.2950403968
 C         -3.5029705847        1.3805859783        0.1294782620
 S         -2.7649697400        2.7993068837        0.8981241232
 C         -1.4704260162        3.0756008361       -0.2821900589
 C         -1.0619643696        4.3781014229       -0.5070562527
 C          0.0026695656        4.6405176611       -1.3500897550
 C          0.6648530953        3.5821084303       -1.9435046040
 C          0.2431809751        2.2815828891       -1.7349000584
 C         -0.8562056827        1.9981672584       -0.9254433549
 P          1.6418502403       -0.5248731336        1.6240976125
 O          1.7453266917       -0.9182354489        3.0413456138
 C          3.0919039649       -1.0123679652        0.6409210189
 C          4.0904284461       -1.7079712720        1.3109946194
 C          5.2244266848       -2.1228529661        0.6350109149
 C          5.3632820506       -1.8396359958       -0.7141986770
 C          4.3706266124       -1.1414652352       -1.3848063491
 C          3.2347440220       -0.7267124888       -0.7129718108
 C          1.4746851800        1.2900461821        1.5049667484
 C          0.5953689230        1.8850113085        2.4037686888
 C          0.5234123724        3.2615316517        2.5032830501
 C          1.3508299597        4.0541916505        1.7248051805
 C          2.2464538585        3.4650321537        0.8496925901
 C          2.3094412055        2.0869508763        0.7347997104
 C          0.4523170170       -2.8668682255        1.2608069030
 C         -0.5464153356       -3.7136999421        1.4957416325
 H         -2.6753600843       -5.2917698141        1.3736130506
 H         -3.1929568620       -1.5728564545        1.5325213517
 H         -1.3430933776        0.0357675290        1.4247739298
 H         -0.7443548417       -1.0114975497        2.7118147877
 H          1.2978915145       -3.0918044885       -0.8797179199
 H          1.2538172686       -3.1410078355       -3.3021004551
 H         -0.0296349236       -1.4197468764       -4.5598462261
 H         -1.2209854098        0.3347453984       -3.2958973834
 H         -2.7579822986       -1.3866065279       -1.6452575618
 H         -5.1402283374       -1.7681532400       -1.3243947247
 H         -6.5191680931       -0.1251428181       -0.0827462948
 H         -5.4338083614        1.8973887849        0.8548656489
 H         -1.5787638171        5.1783237222        0.0005261312
 H          0.3178298476        5.6574539084       -1.5231212992
 H          1.5161246039        3.7618223076       -2.5824194251
 H          0.7778751460        1.4760333335       -2.2117720214
 H          3.9594903632       -1.9125668110        2.3648192574
 H          5.9974933229       -2.6644770129        1.1598943732
 H          6.2474851265       -2.1611477999       -1.2444091522
 H          4.4815137615       -0.9195277958       -2.4359877906
 H          2.4601114763       -0.1872034530       -1.2358481070
 H         -0.0117123183        1.2639640929        3.0457929869
 H         -0.1701488191        3.7141223280        3.1962789087
 H          1.3073538039        5.1293880331        1.8120389754
 H          2.9077432342        4.0796439218        0.2575516610
 H          3.0227361484        1.6388015810        0.0605616041
 H          1.4848917681       -3.1809269307        1.3377147417
 H         -0.3623980205       -4.7457879285        1.7553861319
