164

C     12.063175    1.558859    0.663491
C     10.819179    1.063283   -0.021266
C     10.933761    0.160362   -1.066789
C      9.773125   -0.257762   -1.656281
C      8.524283    0.182559   -1.249647
C      8.397106    1.079736   -0.211950
N      7.130479    1.534154    0.242763
C      7.100173    2.852567    0.816542
C      6.181892    3.171085    1.825252
C      6.162933    4.463551    2.345261
C      7.010100    5.436810    1.906790
C      7.933983    5.133956    0.899510
C      8.863107    6.191330    0.416587
C      7.950846    3.844036    0.381937
C      5.944122    0.740435    0.167010
C      6.005886   -0.659595    0.178089
C      4.832451   -1.417747    0.087734
C      3.671775   -0.704758   -0.007773
C      3.535077    0.640794   -0.024332
C      4.709923    1.394899    0.065490
N      2.264028    1.237503   -0.110340
C      2.249592    2.681737   -0.118543
C      2.301711    3.374494   -1.318045
F      2.365244    2.695409   -2.488935
C      2.285312    4.751407   -1.242423
C      2.219970    5.393180   -0.021978
C      2.168375    4.694692    1.171634
C      2.184234    3.314439    1.106599
F      2.133717    2.628211    2.264003
C      1.022335    0.547361   -0.188497
C     -0.108947    1.317374   -0.140253
C     -1.308332    0.666947   -0.084677
C     -1.409670   -0.702531   -0.067212
C     -0.244693   -1.433355   -0.127385
C      0.984293   -0.822849   -0.192569
B      2.341617   -1.555715   -0.129871
C      2.417053   -3.067098   -0.154714
C      1.403243   -3.918060   -0.393756
C      1.521949   -5.308977   -0.509902
C      2.781883   -5.811101   -0.373170
C      2.959874   -7.279917   -0.485078
C      3.878012   -5.010357   -0.138020
C      3.689176   -3.650292   -0.033509
N      4.839236   -2.837122    0.080104
C      6.118862   -3.458683    0.174277
C      6.935205   -3.305418    1.294487
C      8.176563   -3.875744    1.397165
C      8.680494   -4.641495    0.374595
C      7.899858   -4.820571   -0.761493
C      8.398954   -5.643298   -1.897900
C      6.653702   -4.236661   -0.842205
B     -2.826401   -1.293834   -0.085976
C     -3.054328   -2.797344    0.022680
C     -2.120979   -3.739420    0.250169
C     -2.383645   -5.101288    0.445176
C     -3.694156   -5.468901    0.403404
C     -4.012389   -6.906928    0.600945
C     -4.709700   -4.570301    0.186522
C     -4.381534   -3.244971    0.001293
N     -5.449263   -2.323765   -0.103762
C     -6.792117   -2.805802   -0.116946
C     -7.619445   -2.637174   -1.228976
C     -8.916183   -3.060192   -1.271485
C     -9.471050   -3.688482   -0.182643
C     -8.687631   -3.872383    0.930179
C     -9.272490   -4.553715    2.136253
C     -7.374621   -3.441074    0.965156
C     -5.295421   -0.912754   -0.183247
C     -6.397944   -0.049799   -0.245674
C     -6.156424    1.306019   -0.278293
N     -7.326406    2.156217   -0.331404
C     -8.135072    2.163643    0.823503
C     -9.487401    2.394723    0.844094
C    -10.183478    2.407138    2.043419
C     -9.578309    2.192894    3.260692
C     -8.211473    1.957721    3.247436
C     -7.450505    1.717496    4.502676
C     -7.528177    1.947151    2.057503
C     -7.552632    2.878922   -1.516871
C     -8.325110    4.005178   -1.629822
C     -8.488492    4.616085   -2.862555
C     -7.894472    4.130666   -4.006966
C     -7.120169    3.007379   -3.907071
C     -6.437865    2.410626   -5.097499
C     -6.964457    2.409786   -2.683633
C     -4.896574    1.861481   -0.252390
C     -3.806900    0.995929   -0.189936
C     -4.072410   -0.335441   -0.160097
N     -2.477515    1.467303   -0.147427
C     -2.326298    2.903263   -0.167021
C     -2.202022    3.604643   -1.346836
F     -2.217781    2.963249   -2.538212
C     -2.062607    4.972973   -1.248899
C     -2.047949    5.615611   -0.025683
C     -2.176514    4.872502    1.139208
C     -2.316991    3.506478    1.077408
F     -2.443454    2.782775    2.231816
C      9.577343    1.504610    0.386971
H     12.057643    2.659278    0.763367
H     12.105757    1.149331    1.697465
H     12.943080    1.280384    0.056058
H     11.918966   -0.171585   -1.369175
H      9.840158   -0.972907   -2.482874
H      7.675310   -0.207806   -1.789372
H      5.491689    2.452420    2.221618
H      5.459348    4.735079    3.129232
H      6.969733    6.444407    2.337385
H      9.857672    5.987330    0.875166
H      8.893955    6.242757   -0.690789
H      8.504338    7.171889    0.782623
H      8.688271    3.671593   -0.405947
H      6.958313   -1.126282    0.259763
H      4.602862    2.452395    0.044106
H      2.325720    5.302092   -2.187203
H      2.206768    6.488674    0.035554
H      2.116748    5.200454    2.129974
H     -0.058180    2.390847   -0.144155
H     -0.297797   -2.433188   -0.126870
H      0.466332   -3.560475   -0.687267
H      0.676264   -5.946332   -0.695349
H      2.833980   -7.775930    0.497992
H      2.173501   -7.662969   -1.165253
H      3.939256   -7.488926   -0.966266
H      4.822516   -5.511600   -0.041237
H      6.533575   -2.700656    2.099842
H      8.734736   -3.693678    2.317768
H      9.661196   -5.095540    0.449353
H      7.799917   -6.595224   -1.854709
H      9.484901   -5.848179   -1.797808
H      8.214327   -5.090326   -2.839518
H      6.083944   -4.403684   -1.748730
H     -1.136922   -3.476459    0.457469
H     -1.612138   -5.824673    0.618360
H     -4.775482   -7.209613   -0.163574
H     -4.459561   -7.106954    1.575503
H     -3.121683   -7.536408    0.394277
H     -5.711285   -4.964238    0.168926
H     -7.178465   -2.133088   -2.102857
H     -9.511175   -2.905886   -2.155131
H    -10.499868   -4.045268   -0.165613
H     -9.641358   -3.781974    2.857707
H     -8.485025   -5.189771    2.576435
H    -10.112077   -5.188376    1.804299
H     -6.730175   -3.572380    1.832456
H     -7.407912   -0.422646   -0.263175
H    -10.022487    2.558083   -0.064143
H    -11.261051    2.595106    2.025027
H    -10.091473    2.195559    4.208222
H     -8.145474    1.541907    5.340332
H     -6.773079    0.845361    4.445703
H     -6.875003    2.640714    4.773931
H     -6.446941    1.756432    2.086129
H     -8.801876    4.427790   -0.760886
H     -9.094243    5.506115   -2.977196
H     -7.997040    4.577785   -4.982415
H     -6.108320    3.238764   -5.753505
H     -7.133496    1.712538   -5.585892
H     -5.552981    1.850296   -4.718246
H     -6.340138    1.510400   -2.626492
H     -4.754954    2.924599   -0.280084
H     -1.961069    5.575800   -2.142045
H     -1.936204    6.686290    0.015089
H     -2.163076    5.380559    2.086267
H      9.580417    2.209041    1.222387
