67

C      5.893854   -4.729585   -0.746005
O      4.640058   -4.631880   -0.082014
C      4.134616   -3.373418    0.101885
C      2.868168   -3.335760    0.677048
C      2.212560   -2.125727    0.927536
C      2.852876   -0.926414    0.561719
C      4.147635   -0.938160    0.038208
C      4.785061   -2.177507   -0.210194
C      4.573359    0.416390   -0.096854
C      5.775314    1.014165   -0.535217
C      5.919266    2.405978   -0.535021
O      7.134673    2.848671   -0.982559
C      7.342168    4.255251   -0.999119
C      4.867300    3.204887   -0.101273
C      3.662355    2.637856    0.335544
C      3.532768    1.235505    0.340743
N      2.457461    0.407970    0.660843
C      1.172551    0.879283    1.084465
N      1.183488    1.869874    2.014519
C      0.000011    2.316455    2.437520
N     -1.183470    1.869845    2.014557
C     -1.172548    0.879259    1.084496
N     -2.457467    0.407943    0.660896
C     -2.852866   -0.926443    0.561696
C     -2.212527   -2.125774    0.927412
C     -2.868122   -3.335799    0.676849
C     -4.134586   -3.373436    0.101722
O     -4.640011   -4.631893   -0.082257
C     -5.893877   -4.729561   -0.746127
C     -4.785055   -2.177513   -0.210253
C     -4.147640   -0.938174    0.038220
C     -4.573387    0.416377   -0.096748
C     -5.775359    1.014159   -0.535053
C     -5.919324    2.405970   -0.534797
O     -7.134739    2.848670   -0.982306
C     -7.342104    4.255266   -0.999189
C     -4.867368    3.204870   -0.101010
C     -3.662409    2.637832    0.335759
C     -3.532796    1.235481    0.340872
C     -0.000001    0.363798    0.541552
C      0.000000   -0.421221   -0.656111
N      0.000005   -1.029053   -1.643704
H      5.848212   -4.288569   -1.747370
H      6.691083   -4.275025   -0.148806
H      6.129199   -5.792072   -0.860788
H      2.376212   -4.270713    0.939169
H      1.237727   -2.141671    1.401425
H      5.786542   -2.163796   -0.623911
H      6.599958    0.391741   -0.872048
H      8.352955    4.439535   -1.375668
H      7.281344    4.675378    0.010268
H      6.639088    4.749960   -1.677338
H      4.943101    4.287632   -0.090590
H      2.851523    3.283851    0.659499
H      0.000013    3.103055    3.184560
H     -1.237680   -2.141743    1.401273
H     -2.376144   -4.270764    0.938883
H     -6.691049   -4.275046   -0.148814
H     -5.848342   -4.288474   -1.747466
H     -6.129226   -5.792041   -0.860959
H     -5.786544   -2.163784   -0.623950
H     -6.600002    0.391743   -0.871904
H     -7.281330    4.675600    0.010116
H     -6.638919    4.749767   -1.677453
H     -8.352841    4.439563   -1.375868
H     -4.943188    4.287613   -0.090251
H     -2.851584    3.283822    0.659743
