34
 xtb: 6.7.1 (edcfbbe)
Br           5.72948589715542        3.04586275917464       -0.13111405198825
C            4.98110418899885        1.29086237469402        0.00753372195812
C            5.82086690416610        0.18593890790924        0.05881814833822
C            5.20311244026000       -1.05476556125648        0.10313054543276
C            3.81987895058458       -1.13266689018926        0.09442227630321
C            3.07482571048628        0.05223039858925        0.03804873278398
C            1.62561558263557        0.07219258680515        0.02524573588956
N            0.88992347423736        1.16014701270087        0.03838261183169
C           -0.39925516049814        0.74437220910769        0.02082189842249
C           -1.59331863762373        1.52260403315372        0.02603870033395
C           -1.60812598983901        2.92254120838109        0.04956574030695
C           -2.82109052058521        3.57137981750143        0.05330135444310
C           -3.98616399728271        2.79734751845667        0.03327037050313
N           -3.99436618322059        1.48660029725962        0.01198522916885
C           -2.82922835429300        0.83176788265455        0.00693024774114
C           -2.87037413211679       -0.61994994492939       -0.01805736665615
N           -4.06636533629320       -1.21089011603855       -0.04000476763394
C           -4.13587833509466       -2.51980373624432       -0.05997427974067
C           -3.01712497471805       -3.35809971445359       -0.06617912525926
C           -1.76990589574825       -2.77848689378288       -0.04692687755215
C           -1.66908570508849       -1.37991670739674       -0.02208458789378
C           -0.45145213784187       -0.65310826290452       -0.00082430918542
N            0.84995491243404       -1.06277690048509        0.00438519582413
N            3.67662328803616        1.24234540883368       -0.00474269528264
H            6.89242913810936        0.29752146268182        0.01850744504078
H            5.79926632694915       -1.95468344044771        0.04218472446610
H            3.33931106706990       -2.09772350557317        0.03896096881183
H           -0.66786621908007        3.45313878767388        0.01858224967289
H           -2.88072681301701        4.64843480339400        0.02063749100376
H           -4.96213557192313        3.26622559949472        0.01026351764247
H           -5.13651554514270       -2.93231028513734       -0.02158379596552
H           -3.13586571874116       -4.43003716356810       -0.02483416576231
H           -0.87772080105156       -3.38885741410246       -0.01480154949187
H            1.17017038408596       -2.01743548272350       -0.00435676767946
