  69
 
 C         -5.7566197881       -4.5519790086        0.3284570540
 C         -4.7854475714       -5.3700540214        0.8811002453
 C         -3.4465185989       -5.0571265668        0.7360287389
 C         -3.0573924825       -3.9171396337        0.0367242320
 C         -1.6354985476       -3.5678066391       -0.1048482757
 C         -0.6627903856       -4.5431346415       -0.3245120001
 C          0.6716346850       -4.1950176143       -0.4482039669
 C          1.0647651745       -2.8728758911       -0.3579514763
 C          0.1040592821       -1.8878707957       -0.1447217199
 C          0.4747116993       -0.4730650105       -0.0560234118
 N         -0.5051937054        0.4050913447       -0.0026875173
 C         -0.1899751875        1.7428906019        0.0846981660
 C         -1.2616980637        2.6886005183        0.1449828074
 C         -1.0268384038        4.0619855856        0.3045173788
 C         -2.0924680389        4.9332208419        0.3655904016
 C         -3.3968939034        4.4712378262        0.2656095294
 C         -3.6521791468        3.1077849082        0.1001044690
 C         -5.0263076223        2.5961776343       -0.0215064923
 C         -5.3904292608        1.3949464477        0.5839313962
 C         -6.6752599178        0.9016402688        0.4560949690
 C         -7.6187845819        1.5991651978       -0.2796478020
 C         -7.2688919423        2.7947457586       -0.8845620509
 C         -5.9844830773        3.2902533529       -0.7563873119
 C         -2.5815628641        2.2317822922        0.0434685169
 N          1.0784363133        2.0916037365        0.1142954017
 C          2.0559795928        1.2067190567        0.0542215409
 C          3.4292976524        1.6054386706        0.0756275273
 C          3.7810568751        2.9622887500        0.1519485709
 C          5.1086045952        3.3267950655        0.1694049348
 C          6.1075680956        2.3660026436        0.1153075309
 C          5.7794069513        1.0105406507        0.0386954390
 C          6.8350471953       -0.0127232032       -0.0207758724
 C          6.7192934771       -1.1011587208       -0.8822293722
 C          7.7124728145       -2.0608635654       -0.9412453521
 C          8.8348341015       -1.9522283884       -0.1372057217
 C          8.9587301334       -0.8759344634        0.7252807344
 C          7.9688513354        0.0875432989        0.7817949860
 C          4.4442914115        0.6420833188        0.0183644651
 N          1.7441224477       -0.1348723690       -0.0377338709
 C         -1.2351369259       -2.2409258824       -0.0172757643
 C         -4.0431591710       -3.1013544351       -0.5155939334
 C         -5.3809934913       -3.4173886571       -0.3713451180
 H         -6.8019245856       -4.7980606141        0.4429274402
 H         -5.0729790898       -6.2544451359        1.4308866971
 H         -2.6955205714       -5.6886188985        1.1880929286
 H         -0.9572647824       -5.5781873638       -0.4170607248
 H          1.4109907756       -4.9634293523       -0.6201487774
 H          2.1012082049       -2.5895121892       -0.4538499126
 H         -0.0098969691        4.4145469556        0.3812285919
 H         -1.9120571109        5.9906363226        0.4963153017
 H         -4.2205779306        5.1657475926        0.3361714770
 H         -4.6653237986        0.8541568246        1.1746702773
 H         -6.9416335111       -0.0301569635        0.9343746481
 H         -8.6226002957        1.2133353252       -0.3808845931
 H         -8.0000603578        3.3418365544       -1.4621280647
 H         -5.7133881949        4.2134468313       -1.2476980145
 H         -2.7457982942        1.1756234068       -0.1071535376
 H          2.9968101794        3.7023228379        0.1947201421
 H          5.3772218125        4.3721318079        0.2228036073
 H          7.1448433038        2.6657798705        0.1100378489
 H          5.8530981077       -1.1813615810       -1.5229868884
 H          7.6126852015       -2.8965460312       -1.6189890998
 H          9.6098649299       -2.7031665578       -0.1826762384
 H          9.8303416307       -0.7882751116        1.3578358017
 H          8.0633187359        0.9165873805        1.4681462366
 H          4.1629542513       -0.3994823031       -0.0187826024
 H         -1.9588153642       -1.4634089997        0.1731020029
 H         -3.7583227915       -2.2246471618       -1.0786875774
 H         -6.1325869799       -2.7756838838       -0.8078482022
