  44
 
 O         -2.3936443069        0.4429625501       -2.5707411504
 C         -2.6530931344       -0.2126032926       -1.5506596433
 O         -3.9208494458       -0.6767440984       -1.4471658945
 C         -4.3075796421       -1.4452155562       -0.3848598904
 C         -5.6029607936       -1.9251434567       -0.3738887698
 C         -6.0413379099       -2.6993777332        0.6972260113
 C         -5.1847587220       -2.9808105919        1.7560942526
 C         -3.8941690440       -2.5050873806        1.7550513169
 C         -3.4230605988       -1.7196332949        0.6788251791
 C         -2.1035661605       -1.1871017132        0.6432413486
 O         -1.3287110208       -1.4201862953        1.6971946675
 C         -1.6962815907       -0.5006625790       -0.5296724503
 C         -0.2879123838       -0.0421184860       -0.8393763215
 C          0.8003275541       -1.0032922739       -0.4880391121
 C          0.7289064305       -2.3542546944       -0.2880051586
 C          1.9820897690       -2.9566218776       -0.0781609718
 C          2.9971437456       -2.0470954303       -0.1426722856
 Br         4.8265786109       -2.3934333383        0.0685573238
 S          2.4400596025       -0.4387983373       -0.4600693790
 C         -0.1381521947        1.3192193858       -0.1894221982
 C         -0.3890268760        2.5193588242       -0.9073907574
 O         -0.8835473336        2.5626580366       -2.1438667056
 C         -0.0222299784        3.7490495364       -0.2991390163
 C         -0.1445366777        4.9934285933       -0.9586430123
 C          0.1985686561        6.1586595873       -0.3132207993
 C          0.6780739863        6.1281340442        0.9916415554
 C          0.8070303427        4.9149776911        1.6645293245
 C          0.4668974161        3.7394813478        1.0248137652
 O          0.5991046266        2.5721754430        1.7251833136
 C          0.3237866610        1.3735167527        1.1537380534
 O          0.5302528561        0.3747281606        1.8629414537
 H         -6.2537143985       -1.6885451171       -1.2001719406
 H         -7.0499015638       -3.0806594660        0.6969149207
 H         -5.5333729759       -3.5793019630        2.5833429894
 H         -3.2129768785       -2.7150737383        2.5635262531
 H         -0.5177256261       -0.8406001189        1.7263478611
 H         -0.2398978777        0.1037136558       -1.9295329934
 H         -0.1916287643       -2.9085532125       -0.2865222116
 H          2.1291086270       -4.0039541372        0.1108891464
 H         -1.3759409384        1.7400330189       -2.4052573337
 H         -0.5133827900        4.9943984843       -1.9713563935
 H          0.0988758176        7.1027183376       -0.8259935690
 H          0.9562775850        7.0422557131        1.4911229203
 H          1.1705431166        4.8707475799        2.6785836464
