  53
 
 O          4.0400423684        0.5743264307        2.2214218575
 C          3.2451975151        0.3290749663        1.3311986301
 C          1.7899072462        0.3156247969        1.5305024342
 C          1.2723680341        0.5641713108        2.7871345471
 C         -0.1065407475        0.5370766434        2.9976194315
 C         -0.9645024638        0.2963955744        1.9539348714
 C         -0.4766970985        0.0647797549        0.6518681549
 C         -1.3282614861       -0.2002996945       -0.4604384925
 N         -2.7219481497       -0.1535153656       -0.3048132768
 C         -3.3637242022        1.0622768529       -0.0268299866
 C         -2.6662214848        2.2600458737        0.0802070427
 C         -3.3281787532        3.4435323357        0.3654884661
 C         -4.6998940956        3.4545887288        0.5304645154
 C         -5.4154231387        2.2770373361        0.3806536192
 C         -4.7584156032        1.0922922303        0.0956373115
 O         -5.5372953590       -0.0252084473       -0.0746287426
 C         -4.9048799368       -1.1861455279       -0.4460903842
 C         -5.7103361698       -2.2870824247       -0.6801341898
 C         -5.1463446356       -3.5084539131       -1.0137451131
 C         -3.7719399949       -3.6239319172       -1.0921170838
 C         -2.9614622298       -2.5230480194       -0.8637479154
 C         -3.5118648653       -1.2822312721       -0.5638234976
 C         -0.7810932506       -0.5130982339       -1.6920437466
 C          0.5956552051       -0.5320701874       -1.8788000293
 C          1.4528814718       -0.2447481868       -0.8306875273
 C          0.9276027756        0.0480545276        0.4456463458
 C          2.9000796757       -0.2527210982       -1.0539241705
 O          3.4140439758       -0.5085211778       -2.1291542433
 N          3.6899699509        0.0476277093        0.0486411049
 C          5.1127405895        0.0533423104       -0.1582535390
 C          5.8796877650       -0.9941483606        0.3257029537
 C          7.2495284984       -0.9816111891        0.1285132160
 C          7.8448746327        0.0670861428       -0.5523100524
 C          7.0709503922        1.1081259710       -1.0369762622
 C          5.7012220858        1.1071602259       -0.8384687412
 H          1.9568615542        0.7676476160        3.5970404387
 H         -0.4960845817        0.7083066683        3.9890071671
 H         -2.0292665698        0.2775478649        2.1280785432
 H         -1.5972952467        2.2698346396       -0.0610903111
 H         -2.7601243370        4.3567266906        0.4516495365
 H         -5.2191723657        4.3718276819        0.7585189398
 H         -6.4894815360        2.2539521587        0.4763822355
 H         -6.7780371103       -2.1657994917       -0.5871418297
 H         -5.7818421501       -4.3604329064       -1.1962838812
 H         -3.3162241219       -4.5733647128       -1.3269204886
 H         -1.8899406497       -2.6345685421       -0.9105092301
 H         -1.4366049915       -0.7189148958       -2.5248611251
 H          1.0179425464       -0.7505467784       -2.8480232160
 H          5.4040729602       -1.8067223245        0.8552486277
 H          7.8503426565       -1.7948365384        0.5070467706
 H          8.9134939354        0.0727249700       -0.7058016912
 H          7.5321644781        1.9266847071       -1.5688342874
 H          5.0874690122        1.9141464867       -1.2111557067
