  128
 
 O          7.7324222753        0.6952933839       -0.4059409784
 P          7.7512446840       -0.0934011075        0.8398567531
 C          9.2391367747        0.2071341287        1.8433969338
 C          9.6594624804       -0.6784467807        2.8287224695
 C         10.8008418259       -0.3991745111        3.5585302321
 C         11.5230381989        0.7575118357        3.3060333806
 C         11.1078007521        1.6374003425        2.3193613981
 C          9.9663694117        1.3610659810        1.5871852838
 C          7.7335888183       -1.8949475312        0.5814718187
 C          8.5305550460       -2.3785479119       -0.4476530229
 C          8.6423968571       -3.7409199153       -0.6545375442
 C          7.9518321407       -4.6209530689        0.1640740220
 C          7.1468981426       -4.1388191451        1.1833355468
 C          7.0405456838       -2.7758038072        1.3997284043
 C          6.3458120276        0.2685896781        1.9454519720
 C          6.4473546732        0.4635415297        3.3174402898
 C          5.3335024895        0.7697942675        4.0928153988
 C          4.0777304570        0.9019845580        3.5297787825
 C          3.9490783200        0.7204097591        2.1587517818
 C          5.0830681395        0.4022546244        1.3853178501
 O          4.7743006329        0.2566567693        0.0713845236
 C          3.4398244890        0.4978127233       -0.0325498272
 C          2.6756808288        0.4753564232       -1.1892563582
 P          3.3333463380        0.1674846298       -2.8576214827
 O          2.2502876013       -0.1067093199       -3.8236745542
 C          4.4757252741       -1.2407824574       -2.6987724250
 C          5.5962174240       -1.3295045982       -3.5107970478
 C          6.3725576732       -2.4745796531       -3.4865422405
 C          6.0266555566       -3.5289321894       -2.6575588844
 C          4.9069072643       -3.4403631680       -1.8468165866
 C          4.1268908189       -2.2986286610       -1.8713202838
 C          4.3061186674        1.6428122347       -3.2751514052
 C          3.7942541484        2.4829426715       -4.2557509677
 C          4.4720113304        3.6394525604       -4.5984456685
 C          5.6596987193        3.9561445589       -3.9581765746
 C          6.1697412951        3.1163902321       -2.9796646683
 C          5.4967103165        1.9589043322       -2.6319913546
 C          1.3214050187        0.7414048939       -1.0624800065
 C          0.7193388477        1.0215978609        0.1694597912
 C         -0.7252786978        1.2912277423        0.2376854089
 C         -1.6226588388        0.5747039391       -0.5513967989
 C         -2.9784894386        0.8276255211       -0.4868683158
 C         -3.4824531426        1.7998866250        0.3708896525
 C         -4.9630861657        2.1223266927        0.3781534053
 C         -5.8354362117        0.8932000297        0.2218902546
 C         -7.0323330205        0.9518320744       -0.4813288626
 C         -7.8532338795       -0.1559960333       -0.5759605634
 C         -7.4982294957       -1.3453581308        0.0516650602
 N         -8.3275569151       -2.4743225907       -0.0450625598
 C         -7.9326398648       -3.7323628460       -0.4527363861
 C         -6.6862273837       -4.1743212300       -0.8746325291
 C         -6.5645089307       -5.4976005058       -1.2533724136
 C         -7.6541557369       -6.3661772350       -1.2238184434
 C         -8.9015151575       -5.9270330304       -0.8265619114
 C         -9.0493055746       -4.6006177186       -0.4407094345
 C        -10.1690508186       -3.8178214775        0.0024657577
 C        -11.5085989194       -4.1067611973        0.2309993917
 C        -12.3338494929       -3.1002586848        0.6919460588
 C        -11.8362744504       -1.8217484677        0.9381525989
 C        -10.5086204202       -1.5091983664        0.7169803000
 C         -9.6787211158       -2.5111183921        0.2328303662
 C         -6.3113246498       -1.4051754887        0.7753075394
 C         -5.4920487317       -0.2962378018        0.8563846322
 C         -5.4204039167        2.8529607105        1.6281799687
 C         -5.4608719240        2.3934529032        2.9274052464
 C         -5.9402375848        3.2395185573        3.9190106516
 C         -6.3746343770        4.5202222800        3.6115132206
 C         -6.3438582180        4.9847586927        2.3061733441
 C         -5.8667708394        4.1444534623        1.3131307959
 C         -5.7205840217        4.3491015407       -0.1194593477
 C         -6.0020936753        5.4495337938       -0.9128608879
 C         -5.7569477012        5.3670107714       -2.2743582347
 C         -5.2371847288        4.2087571794       -2.8327215522
 C         -4.9537665761        3.1027855739       -2.0420069505
 C         -5.2034673305        3.1763325460       -0.6881308266
 C         -2.5884910115        2.5254226780        1.1483074837
 C         -1.2315829898        2.2715302697        1.0875329647
 C          1.5003991412        1.0436572410        1.3203351240
 C          2.8592554677        0.7823724080        1.2188374243
 H          9.0954473400       -1.5817106663        3.0135950259
 H         11.1302227683       -1.0856232289        4.3247484263
 H         12.4144556642        0.9706884820        3.8773043948
 H         11.6732579063        2.5357318153        2.1193325321
 H          9.6257368149        2.0259984771        0.8054393037
 H          9.0534331122       -1.6704230921       -1.0764437175
 H          9.2703760041       -4.1162576966       -1.4490805678
 H          8.0397034387       -5.6858490011        0.0062902896
 H          6.6056961512       -4.8262301039        1.8171381132
 H          6.4217112464       -2.3939291778        2.2000847527
 H          7.4154661784        0.3764549418        3.7873546371
 H          5.4598073139        0.9103700332        5.1555614026
 H          3.2177254802        1.1435160062        4.1342752369
 H          5.8509437052       -0.5009853396       -4.1583604893
 H          7.2451102678       -2.5454099647       -4.1192871330
 H          6.6268831850       -4.4257919411       -2.6471238522
 H          4.6385332897       -4.2637455582       -1.2012905697
 H          3.2389131421       -2.2201726222       -1.2563382029
 H          2.8689446033        2.2077274387       -4.7431882951
 H          4.0753005513        4.2916884535       -5.3627714002
 H          6.1911671320        4.8582335326       -4.2244488685
 H          7.0980481464        3.3574320658       -2.4830154411
 H          5.8997735478        1.3011843139       -1.8767965612
 H          0.7306404163        0.7349810036       -1.9675594173
 H         -1.2557757175       -0.1985713658       -1.2104448691
 H         -3.6542013563        0.2548058218       -1.1052182698
 H         -7.3229995086        1.8689375321       -0.9718135252
 H         -8.7687828769       -0.1059567550       -1.1464304442
 H         -5.8396743958       -3.5054807331       -0.9150123447
 H         -5.6038057867       -5.8666251761       -1.5825925375
 H         -7.5177941006       -7.3945567018       -1.5252952004
 H         -9.7486155638       -6.5968696736       -0.8179476774
 H        -11.8916711341       -5.1009736845        0.0545318463
 H        -13.3789518009       -3.3042347628        0.8741724962
 H        -12.5031136405       -1.0586533645        1.3129285016
 H        -10.1287114173       -0.5199232972        0.9241374456
 H         -6.0410874984       -2.3196769817        1.2821944300
 H         -4.5711674403       -0.3588041603        1.4171398404
 H         -5.1244904386        1.3974627123        3.1740518113
 H         -5.9752145486        2.8950559638        4.9424297115
 H         -6.7434733645        5.1615574938        4.3990755129
 H         -6.6856489470        5.9814003177        2.0690866355
 H         -6.4034366955        6.3542017436       -0.4806847502
 H         -5.9705947083        6.2151962707       -2.9088669702
 H         -5.0494727185        4.1653168383       -3.8958209746
 H         -4.5480911375        2.2048427802       -2.4838234371
 H         -2.9553965167        3.2992676465        1.8064590880
 H         -0.5545222894        2.8607428905        1.6881460993
 H          1.0558840929        1.2416702862        2.2829925988
