60

C     -7.752271   -2.906841   -0.436473
C     -6.572380   -2.965857   -1.174233
C     -5.606830   -1.965888   -1.031091
C     -5.805433   -0.889264   -0.148432
N     -4.807333    0.143652    0.000329
C     -5.211237    1.526670    0.101820
C     -6.254106    2.036226   -0.692343
C     -6.645063    3.374380   -0.595122
C     -6.000726    4.226128    0.298667
C     -4.966020    3.742060    1.095291
C     -4.574551    2.404066    0.997702
C     -3.409174   -0.207372    0.049278
C     -2.970465   -1.339972    0.751119
C     -1.611506   -1.682802    0.802138
C     -0.635691   -0.910854    0.148371
C      0.800440   -1.254185    0.182743
C      1.283734   -2.545898    0.344611
N      2.601478   -2.854995    0.378481
C      3.461274   -1.844868    0.239715
N      4.769595   -2.146366    0.272897
C      5.566957   -1.086986    0.123994
C      5.101684    0.223871   -0.052011
N      3.810084    0.557141   -0.089713
C      2.977931   -0.486595    0.058724
N      1.668180   -0.223492    0.032257
C      6.257662    1.089466   -0.177192
C      6.410659    2.449229   -0.363447
C      7.716793    2.965221   -0.441882
C      8.850595    2.126376   -0.334600
C      8.696938    0.737818   -0.144353
C      9.694276   -0.250461   -0.015806
C      9.339700   -1.606898    0.171340
C      7.994529   -2.012933    0.235102
C      7.015896   -1.046725    0.109472
C      7.385295    0.281672   -0.074011
C     -1.083597    0.227631   -0.545412
C     -2.440697    0.572456   -0.597316
C     -7.004111   -0.848260    0.585571
C     -7.968934   -1.848997    0.443262
H     -8.503582   -3.684333   -0.548025
H     -6.403120   -3.786814   -1.866022
H     -4.701696   -2.020476   -1.631188
H     -6.759016    1.393552   -1.409776
H     -7.450066    3.749644   -1.221456
H     -6.304382    5.267000    0.374059
H     -4.462909    4.403006    1.796224
H     -3.775832    2.044136    1.641963
H     -3.686546   -1.956835    1.290458
H     -1.337525   -2.557542    1.387769
H      0.622065   -3.400619    0.440680
H      5.546568    3.101723   -0.446867
H      7.858957    4.034516   -0.588434
H      9.845014    2.561414   -0.400048
H     10.745069    0.025758   -0.060007
H     10.126315   -2.353182    0.268178
H      7.732617   -3.056980    0.379073
H     -0.368421    0.866094   -1.064223
H     -2.733800    1.453373   -1.164313
H     -7.185979   -0.039815    1.289972
H     -8.887304   -1.801176    1.022537
