  52
 
 O         -2.8001976501       -1.9140683552        2.3380134982
 C         -2.8492593963       -0.5210699455        2.0938966958
 C         -3.5864779605       -0.1703900267        0.8219134157
 C         -4.9741622239       -0.1368016867        0.8166472333
 C         -5.6733178954        0.1900220447       -0.3318324495
 C         -4.9820007259        0.5027415674       -1.4911509004
 C         -3.6003582994        0.4731304700       -1.4997239776
 C         -2.8872431350        0.1230216575       -0.3540971902
 C         -1.4154678057        0.0608442803       -0.4021114284
 C         -0.6548647747        1.2634315562       -0.4514793508
 C         -1.2624986276        2.5211177319       -0.4511643834
 C         -0.5049427952        3.6922074031       -0.5426621321
 C          0.8659450280        3.6192708810       -0.6426449383
 C          1.5023379758        2.3734833567       -0.6151869857
 C          0.7705413115        1.1887151683       -0.4882507928
 C          1.4128903020       -0.0801107276       -0.4023757630
 C          2.8845969409       -0.1402347077       -0.3518457545
 C          3.5977253320       -0.5472837746       -1.4784788873
 C          4.9793184166       -0.5782302995       -1.4679485595
 C          5.6707244639       -0.2102562667       -0.3250233809
 C          4.9715858584        0.1738414293        0.8055951184
 C          3.5839756453        0.2100063866        0.8084483695
 C          2.8472151156        0.6254506962        2.0610384723
 O          2.8099940894        2.0287531911        2.2390735409
 C          0.6522420812       -1.2837014152       -0.3935674282
 C          1.2598761923       -2.5400865342       -0.3362911982
 C          0.5022991092       -3.7141301879       -0.3718140471
 C         -0.8689062811       -3.6458636452       -0.4709763518
 C         -1.5052696420       -2.4001241860       -0.4991757109
 C         -0.7732482451       -1.2106849971       -0.4298108186
 H         -2.3243420521       -2.3320581871        1.6051512278
 H         -1.8316981631       -0.1055225973        2.0625615165
 H         -3.3719842691       -0.0991861308        2.9570245495
 H         -5.5052824805       -0.3700852820        1.7282145690
 H         -6.7529314590        0.2089551588       -0.3203104765
 H         -5.5194164637        0.7670541818       -2.3900931850
 H         -3.0555560770        0.7060349742       -2.4035221602
 H         -2.3375868588        2.5877092099       -0.3819920903
 H         -1.0051173812        4.6490286522       -0.5438777577
 H          1.4600688411        4.5161731038       -0.7355198169
 H          2.5767488903        2.3240353490       -0.7226284944
 H          3.0529563164       -0.8236123304       -2.3699492812
 H          5.5166707659       -0.8867963360       -2.3527277042
 H          6.7502804122       -0.2303711718       -0.3120593614
 H          5.5026287763        0.4508046206        1.7049053426
 H          3.3645660388        0.2399954048        2.9442411985
 H          1.8260926039        0.2177437205        2.0467911321
 H          2.3400370985        2.4155955510        1.4856417435
 H          2.3351449063       -2.6034002061       -0.2673076489
 H          1.0026013912       -4.6699876401       -0.3303396963
 H         -1.4632862076       -4.5460357871       -0.5203349205
 H         -2.5800411231       -2.3558578372       -0.6046780887
