  71
 
 C         -8.4922130167        3.0230563806       -0.2593751715
 C         -7.2573448367        2.4938290893       -0.9771909428
 C         -6.2132159643        3.5891094378       -1.1742350115
 C         -4.9919446054        3.0941658597       -1.9686859652
 C         -4.2670366167        2.0169000317       -1.2510541171
 C         -3.4562067417        2.1519179386       -0.1332393745
 C         -2.9483993350        0.9601392621        0.3300575117
 C         -3.4029900624       -0.1747903074       -0.4531835643
 S         -4.4248383493        0.3450735057       -1.7680596302
 C         -2.9865380361       -1.3821497982        0.0099125977
 S         -3.1855743878       -3.0326701307       -0.5175829011
 C         -2.2081678723       -3.5971580204        0.8320216990
 C         -1.8234653662       -5.0260432960        0.9139476460
 C         -0.6827990642       -5.3522815748       -0.0681939113
 C          0.6025367604       -4.5987210609        0.2642816146
 C          1.7201381716       -4.9317161032       -0.7162604166
 C         -1.7747995581       -2.5585559674        1.6424986470
 C         -2.1831241311       -1.3158556404        1.2164215945
 P         -1.8528695636        0.4057084647        1.6541856131
 O         -2.0893948335        0.8731100699        3.0235003650
 C         -0.1395770842        0.6508930091        1.0888052192
 C          0.7986735561        1.1302930701        1.9916376297
 C          2.1287964948        1.2173016478        1.6311994655
 C          2.5290061669        0.8252463710        0.3546874421
 N          3.8757524228        0.8777830272       -0.0121417851
 C          4.5851985488       -0.1476972855       -0.6107579913
 C          4.1781099221       -1.4342773491       -0.9333515425
 C          5.1087340021       -2.2815877260       -1.5043979930
 C          6.4179244602       -1.8699611019       -1.7418836720
 C          6.8362601044       -0.6002266387       -1.3966661193
 C          5.9188130971        0.2692663619       -0.8222023547
 C          6.0095256413        1.6160906885       -0.3298828100
 C          7.0391228409        2.5462559004       -0.2816706927
 C          6.7784889289        3.7940629898        0.2487915810
 C          5.5068329322        4.1239362329        0.7114639864
 C          4.4662568853        3.2152085745        0.6733889876
 C          4.7292964929        1.9510238395        0.1663740964
 C          1.5791066449        0.3638580721       -0.5582418296
 C          0.2546248960        0.2704413793       -0.1890016897
 H         -9.2239115477        2.2302570732       -0.1250671734
 H         -8.9547738560        3.8238603065       -0.8326778861
 H         -8.2253666570        3.4132256558        0.7203431952
 H         -7.5460360531        2.0893067507       -1.9502067928
 H         -6.8231262145        1.6787170992       -0.3946635489
 H         -5.8831893748        3.9556615070       -0.2001210527
 H         -6.6612184553        4.4254443192       -1.7150602700
 H         -5.3211950680        2.7267445690       -2.9425068295
 H         -4.3144517741        3.9385395524       -2.1274217530
 H         -3.2474322367        3.1092015986        0.3129531488
 H         -1.5014045615       -5.2538663215        1.9324123802
 H         -2.6834124584       -5.6542676984        0.6689351557
 H         -0.4919990627       -6.4267381867       -0.0365351040
 H         -1.0050719978       -5.0970774523       -1.0801588864
 H          0.4105127755       -3.5230000101        0.2430101891
 H          0.9203831335       -4.8570701729        1.2772552728
 H          1.9291527913       -5.9993836190       -0.7097259916
 H          2.6317657108       -4.4030405107       -0.4474183626
 H          1.4394108236       -4.6444211955       -1.7273842457
 H         -1.1686866080       -2.7262226444        2.5163185692
 H          0.4669004365        1.4161311088        2.9791966166
 H          2.8680375522        1.5595307429        2.3399078196
 H          3.1715737378       -1.7708461007       -0.7352520247
 H          4.8147374161       -3.2864836178       -1.7702125864
 H          7.1144853917       -2.5607204951       -2.1929647323
 H          7.8556866352       -0.2868553650       -1.5632338293
 H          8.0198006920        2.2957936255       -0.6569123843
 H          7.5657411369        4.5313417468        0.2984970816
 H          5.3282086010        5.1134116179        1.1055188779
 H          3.4798704910        3.4886327887        1.0162786811
 H          1.8901355708        0.0907763589       -1.5555751221
 H         -0.4813556340       -0.0940451786       -0.8916520504
