  92
 
 N         10.3363760438        1.9180747298        0.1818114675
 C          9.3137844948        1.3897253168        0.1273451147
 C          8.0864142721        0.7145504202        0.0591618942
 N          6.9431494219        1.4062902673        0.1198296694
 C          5.7881233845        0.7153218563        0.0558014430
 C          4.5533592045        1.4191595753        0.1090068619
 C          4.4913078865        2.8218757506        0.2127447430
 C          3.2753475792        3.4503504343        0.2445830568
 C          2.0975274879        2.6720826827        0.1641012709
 C          0.7569460959        3.2527949260        0.1568634600
 C          0.4737886009        4.5206077590        0.6723407190
 C         -0.8092290636        5.0210169007        0.6510445202
 C         -1.8584896968        4.2734491342        0.1028146847
 N         -3.1520550703        4.7809598083        0.0755801385
 C         -4.2535227071        3.9235143836        0.1858870077
 C         -5.4122693159        4.1717477790       -0.5530788226
 C         -6.5016524150        3.3306189461       -0.4370401761
 C         -6.4529250980        2.2324014903        0.4078520435
 C         -5.3030604930        1.9787331083        1.1400194983
 C         -4.2101530094        2.8171352461        1.0373793397
 C         -3.3671697991        6.1575144395       -0.0687107383
 C         -2.5664006019        6.9124597093       -0.9281487541
 C         -2.7853829557        8.2693812143       -1.0649733122
 C         -3.8026904042        8.8910896051       -0.3568945819
 C         -4.6034302891        8.1443026607        0.4938809820
 C         -4.3909674850        6.7875286187        0.6415548693
 C         -1.5783777115        3.0012950266       -0.4134701469
 C         -0.2981938578        2.5036515720       -0.3786052263
 N          2.1504996230        1.3533007807        0.0665532515
 C          3.3172093067        0.7236189479        0.0451055053
 C          3.3190903347       -0.7148217072       -0.0513952409
 N          2.1540786802       -1.3476671725       -0.0711127314
 C          2.1044995589       -2.6666210433       -0.1682393514
 C          0.7654461176       -3.2508295817       -0.1589658298
 C         -0.2910798872       -2.5037277036        0.3766587955
 C         -1.5699821639       -3.0045150506        0.4133265545
 C         -1.8473806960       -4.2780118449       -0.1011010427
 N         -3.1396271794       -4.7887800293       -0.0720498728
 C         -4.2434120449       -3.9343903070       -0.1826099341
 C         -5.4010154900       -4.1848274824        0.5574143033
 C         -6.4926757204       -3.3466881159        0.4411740626
 C         -6.4473974447       -2.2492805615       -0.4049651698
 C         -5.2987075965       -1.9934444466       -1.1382229972
 C         -4.2035314942       -2.8288607761       -1.0353778747
 C         -3.3509860347       -6.1656821119        0.0745428573
 C         -2.5476817277       -6.9170482641        0.9347431912
 C         -2.7629648352       -8.2743149131        1.0739860257
 C         -3.7789919770       -8.8999157836        0.3674956620
 C         -4.5821966240       -8.1566936573       -0.4840786940
 C         -4.3734969998       -6.7995912769       -0.6340957700
 C         -0.7967466506       -5.0236447726       -0.6493313834
 C          0.4849809000       -4.5200230715       -0.6725286102
 C          3.2843330828       -3.4417065677       -0.2501753496
 C          4.4986300246       -2.8099307009       -0.2202233455
 C          4.5570362011       -1.4070225242       -0.1168960012
 C          5.7899471009       -0.6998277051       -0.0656113884
 N          6.9467480718       -1.3876658058       -0.1314036002
 C          8.0882232861       -0.6928413186       -0.0724485643
 C          9.3173395905       -1.3646847808       -0.1424869370
 N         10.3412549844       -1.8902466522       -0.1985587960
 H          5.4204490854        3.3717479144        0.2576799765
 H          3.2201743503        4.5255745113        0.3022880029
 H          1.2561612740        5.1087810565        1.1264754234
 H         -1.0142953864        5.9907910449        1.0793294452
 H         -5.4454380341        5.0178794731       -1.2231110546
 H         -7.3912414087        3.5302663862       -1.0155635164
 H         -7.3080817428        1.5807581910        0.4980197573
 H         -5.2602606793        1.1282194787        1.8036959738
 H         -3.3228089094        2.6312258474        1.6238118788
 H         -1.7848537587        6.4258761402       -1.4926994619
 H         -2.1635283007        8.8436253773       -1.7354965529
 H         -3.9701961782        9.9515050470       -0.4680987360
 H         -5.3936574304        8.6234458401        1.0523016207
 H         -5.0050733442        6.2090145478        1.3155290688
 H         -2.3721370729        2.4196585574       -0.8571674311
 H         -0.0744791840        1.5271323570       -0.7773772287
 H         -0.0694418984       -1.5261436646        0.7739811663
 H         -2.3647821650       -2.4243124783        0.8570434351
 H         -5.4315535370       -5.0302954265        1.2284053051
 H         -7.3813752123       -3.5480786089        1.0204573707
 H         -7.3043316364       -1.5999961817       -0.4952786710
 H         -5.2585367770       -1.1435227117       -1.8028164175
 H         -3.3170923889       -2.6412649191       -1.6226401202
 H         -1.7670991965       -6.4274189820        1.4979924539
 H         -2.1391452348       -8.8457828399        1.7450533090
 H         -3.9436002500       -9.9605904301        0.4805271436
 H         -5.3715014299       -8.6388784083       -1.0411783398
 H         -4.9895904245       -6.2238325998       -1.3086193797
 H         -0.9997560964       -5.9945134172       -1.0761175633
 H          1.2683792916       -5.1068700247       -1.1266075281
 H          3.2320325534       -4.5170901594       -0.3075828918
 H          5.4292189936       -3.3572689360       -0.2663538327
