  123
 
 C          7.9525164254       -0.7515878539        2.0672743977
 C          6.8903647354       -0.8670557632        0.9589390713
 C          7.2130055655       -2.0521956260        0.0308665847
 C          6.9049827744        0.4129718194        0.1454129202
 C          8.0723784752        0.7892026880       -0.5001864266
 C          8.1790224222        1.9611423970       -1.2404560425
 C          9.4339164338        2.3160166657       -1.9155659536
 C         10.6637638526        2.1005325706       -1.2972042822
 C         11.8426082336        2.4386046463       -1.9347809866
 C         11.8146109926        2.9946128323       -3.2027223339
 C         10.5983010825        3.2130683578       -3.8277890923
 C          9.4184857722        2.8791024540       -3.1900258071
 C          7.0644182093        2.7914815641       -1.3080272496
 C          5.8950085059        2.4445264423       -0.6699208077
 C          5.7872453155        1.2469440953        0.0431244881
 N          4.5905221259        0.9152728850        0.6669413708
 C          3.4904211641        1.7992265492        0.5618586435
 C          2.8159474774        1.9322030931       -0.6506891937
 C          1.7517790327        2.8086661939       -0.7543082425
 C          1.3669170415        3.5412563374        0.3529913302
 S         -0.0240539309        4.6682993767        0.2035663816
 O          0.1419989397        5.4539607367       -0.9895800580
 O         -0.1928945403        5.3500016817        1.4585952719
 C         -1.4088141570        3.5507235964       -0.0416392096
 C         -2.0360341157        3.4949565527       -1.2712068507
 C         -3.0962242817        2.6259083348       -1.4537038113
 C         -3.5150465294        1.8130209621       -0.4030524858
 N         -4.6047941643        0.9290538032       -0.5872178841
 C         -4.4449436564       -0.1787032575       -1.4080838673
 C         -3.1922474885       -0.4615898012       -1.9607046539
 C         -3.0064157550       -1.5450979939       -2.7895977712
 C         -4.0693604032       -2.3885587745       -3.0972785609
 C         -3.8984598814       -3.5353173456       -3.9985097625
 C         -2.7515643733       -4.3242882841       -3.9390821201
 C         -2.5936688214       -5.4036975937       -4.7878567848
 C         -3.5760294254       -5.7123406876       -5.7138439257
 C         -4.7191931756       -4.9339330154       -5.7842523057
 C         -4.8803471647       -3.8565258163       -4.9336330484
 C         -5.3029031159       -2.1190247743       -2.5144942971
 C         -5.5135133148       -1.0430330069       -1.6671690655
 C         -6.8795581578       -0.8525476209       -1.0368197954
 C         -7.9217518606       -0.6775787052       -2.1562061203
 C         -7.2068712743       -2.0968700127       -0.1915726768
 C         -6.9223611369        0.3713191804       -0.1419147446
 C         -8.1013776065        0.6875156101        0.5143296235
 C         -8.2377143468        1.8155267659        1.3158138069
 C         -9.5057749484        2.1049027892        1.9975403348
 C         -9.9954690874        3.4074375404        2.0679536067
 C        -11.1898607253        3.6778490470        2.7087929345
 C        -11.9147163070        2.6532804993        3.2941951570
 C        -11.4368398646        1.3549951645        3.2331499175
 C        -10.2445021074        1.0823482766        2.5894096426
 C         -7.1405921886        2.6624598646        1.4387875950
 C         -5.9541840211        2.3650465391        0.8068229508
 C         -5.8177570584        1.2116920218        0.0289124406
 C         -2.8673396903        1.8745255800        0.8296420751
 C         -1.8114261278        2.7486374201        1.0097625749
 C          2.0195527051        3.4127193742        1.5636200808
 C          3.0884722152        2.5416151498        1.6696695809
 C          4.4585675136       -0.2416050873        1.4223811957
 C          3.2219080295       -0.5676009711        1.9875685709
 C          3.0642414976       -1.7002709692        2.7540644514
 C          4.1353105447       -2.5625254647        2.9679667497
 C          3.9889469285       -3.7706137692        3.7898156520
 C          4.5915673164       -4.9691895739        3.4132016326
 C          4.4538013520       -6.1031590193        4.1913916867
 C          3.7143382962       -6.0600521463        5.3614341115
 C          3.1100999397       -4.8747908975        5.7459925323
 C          3.2439602472       -3.7409504924        4.9670438378
 C          5.3507674931       -2.2500010667        2.3691963502
 C          5.5378342570       -1.1132574890        1.5990136549
 H          7.7297711725        0.1010799599        2.7060465292
 H          7.9703586909       -1.6459044889        2.6838973253
 H          8.9426360301       -0.6125342322        1.6424824735
 H          6.4463471101       -2.1405955678       -0.7366799356
 H          8.1728463939       -1.9130284035       -0.4584968159
 H          7.2489471659       -2.9835206401        0.5890553195
 H          8.9356363580        0.1436079560       -0.4468498973
 H         10.6932206912        1.6864738509       -0.2995900160
 H         12.7882090190        2.2712234489       -1.4393299721
 H         12.7361650178        3.2576337460       -3.7006945744
 H         10.5699998000        3.6441239049       -4.8182006533
 H          8.4735350317        3.0371268920       -3.6893756663
 H          7.1202587972        3.7293468532       -1.8396977711
 H          5.0542039667        3.1191666995       -0.7156639980
 H          3.1394037433        1.3523514755       -1.5021443018
 H          1.2236618163        2.9417990974       -1.6855911498
 H         -1.6942783712        4.1488799868       -2.0581287697
 H         -3.6076244262        2.5699070273       -2.4028861936
 H         -2.3514834944        0.1760103798       -1.7331261610
 H         -2.0316399997       -1.7248483917       -3.2175980047
 H         -1.9890502589       -4.0998174118       -3.2073085947
 H         -1.7009674305       -6.0093542547       -4.7256249405
 H         -3.4511576626       -6.5549486465       -6.3777882413
 H         -5.4871915738       -5.1664981113       -6.5079083056
 H         -5.7661130811       -3.2420956271       -5.0076374859
 H         -6.1177942412       -2.7964757892       -2.7191131118
 H         -7.6771263632        0.1968479577       -2.7564066870
 H         -7.9409296068       -1.5470707392       -2.8073056072
 H         -8.9171844223       -0.5409119208       -1.7431805139
 H         -8.1919531562       -2.0115328071        0.2583692379
 H         -7.1888015010       -2.9967173268       -0.8000131007
 H         -6.4729248501       -2.2069518989        0.6046159973
 H         -8.9639176622        0.0517830300        0.3846715002
 H         -9.4436895761        4.2088981090        1.5985618432
 H        -11.5590958756        4.6924603393        2.7503221680
 H        -12.8470705031        2.8656240609        3.7962591013
 H        -11.9951441005        0.5518479923        3.6924469806
 H         -9.8681078069        0.0697624065        2.5628607339
 H         -7.2077244129        3.5503012450        2.0491446306
 H         -5.1203822312        3.0414484563        0.9139882874
 H         -3.2040906264        1.2407400819        1.6362053945
 H         -1.3026517093        2.8264048951        1.9577592159
 H          1.6892844269        4.0126205588        2.3971230136
 H          3.6198521712        2.4301758160        2.6029135159
 H          2.3701676239        0.0726363146        1.8147290226
 H          2.0938045723       -1.9310622884        3.1673505843
 H          5.1534846256       -5.0164813301        2.4914944229
 H          4.9229694233       -7.0263885438        3.8829203247
 H          3.6088249498       -6.9459580325        5.9700630573
 H          2.5342267043       -4.8339612796        6.6593897168
 H          2.7845267855       -2.8149981632        5.2815464649
 H          6.1827697473       -2.9172932251        2.5341746185
