  60
 
 C         -2.3156307086       -2.9425132540        2.1650690443
 C         -0.9803421458       -2.8225073862        1.8264016636
 C         -0.5626722752       -1.8207950300        0.9528506918
 C          0.8561289696       -1.6692207853        0.6012304367
 C          1.6569942887       -2.7819319909        0.3348111914
 C          2.9767691720       -2.6158257540       -0.0014841371
 C          3.5726190247       -1.3485708812       -0.0786088579
 C          4.9629690067       -1.1806121191       -0.4563719313
 C          5.7535232963       -2.2701965953       -0.8487363605
 C          7.0696104640       -2.1175998713       -1.2129053252
 C          7.6431236153       -0.8526686679       -1.2012655164
 C          6.8878297453        0.2332621593       -0.8284913982
 C          5.5444529965        0.1059047402       -0.4483597152
 C          4.7474697284        1.2604739570       -0.0727688588
 C          5.3051704309        2.5448054925        0.0000732799
 C          4.5496613005        3.6474298480        0.3191557413
 C          3.1924475881        3.4998081579        0.5737696005
 C          2.6241787281        2.2495533545        0.5263079311
 C          3.3749626704        1.1060540794        0.2190788008
 C          2.7803071154       -0.2192048448        0.2206772143
 C          1.4327393272       -0.4144674641        0.5414482328
 C         -1.5107417618       -0.9569010362        0.4161664207
 C         -2.8517355673       -1.0741092550        0.7603820556
 N         -3.7893248831       -0.1840626374        0.2188193643
 C         -4.9809044807       -0.5287239995       -0.3874089654
 C         -5.5150240168       -1.7844922148       -0.6386462525
 C         -6.7307648160       -1.8497141915       -1.2917393483
 C         -7.4019515163       -0.6982203666       -1.6974018178
 C         -6.8634602886        0.5528624983       -1.4734079712
 C         -5.6424283940        0.6443539551       -0.8183722787
 C         -4.8013026451        1.7472683756       -0.4468205517
 C         -4.9143416057        3.1243861821       -0.5855830521
 C         -3.9072429855        3.9249460198       -0.0853616870
 C         -2.8065417853        3.3694889424        0.5633892079
 C         -2.6726307912        2.0028607619        0.7146058578
 C         -3.6674312579        1.1908423499        0.1885521661
 C         -3.2546965615       -2.0705854144        1.6448219408
 H         -2.6282004211       -3.7148828349        2.8523815160
 H         -0.2517753716       -3.4923272467        2.2578796751
 H          1.2288314340       -3.7727923874        0.3717353615
 H          3.5585775833       -3.5003436948       -0.2031521215
 H          5.3317940361       -3.2614737848       -0.8815082219
 H          7.6522654184       -2.9764456028       -1.5118659774
 H          8.6754236526       -0.7208394688       -1.4901146898
 H          7.3571822319        1.2032351480       -0.8443966606
 H          6.3556433340        2.6910182778       -0.1909318010
 H          5.0096624289        4.6233288408        0.3687738333
 H          2.5870746015        4.3611817771        0.8145133988
 H          1.5702392457        2.1680053355        0.7362063860
 H          0.8081765590        0.4305061200        0.7806070615
 H         -1.2115899506       -0.2061564501       -0.3003108196
 H         -4.9943545204       -2.6836829121       -0.3454990746
 H         -7.1689629695       -2.8157303103       -1.4955230292
 H         -8.3519744278       -0.7916061130       -2.2022931223
 H         -7.3750919086        1.4448321902       -1.8024321094
 H         -5.7763491440        3.5553453083       -1.0721963910
 H         -3.9738046568        4.9980367322       -0.1864173850
 H         -2.0432431274        4.0225552543        0.9606922142
 H         -1.8282238900        1.5828660102        1.2403850320
 H         -4.2930911193       -2.1460073027        1.9295841083
