  104
 
 C         -8.1705672292        3.4682892354       -0.5135519565
 C         -6.8749734620        4.1999792266       -0.1093006407
 C         -7.1853881950        5.6654549698        0.2559546119
 C         -5.9230854249        4.1835213562       -1.2853201993
 C         -6.3087821940        4.7564856885       -2.4900614316
 C         -5.4875011749        4.7453604509       -3.6024152209
 C         -4.2462367677        4.1301253560       -3.5292538217
 C         -3.8349538674        3.5563083887       -2.3478019072
 C         -4.6511410677        3.5934854699       -1.2066858714
 N         -4.2043534334        3.0240715367       -0.0310187370
 C         -2.8811241915        2.5020848750        0.0183938269
 C         -1.8009770483        3.3958764971        0.0321981154
 C         -0.4984506824        2.9393402098        0.0907045372
 C         -0.2857195184        1.5685743079        0.1300707564
 C         -1.3754844926        0.6566472384        0.0833386980
 C         -2.6812384661        1.1314933110        0.0405381682
 C         -0.8068579154       -0.6545577280        0.0875266620
 C         -1.3532178751       -1.9323466056        0.0643879689
 C         -0.4911316024       -3.0164155102        0.1050318067
 N         -1.0199071456       -4.3364078650        0.0734853476
 C         -0.8362823479       -5.1038208582       -1.0600765590
 C         -0.1806251303       -4.5539700184       -2.1726310951
 C          0.0292235203       -5.3001199228       -3.3098760727
 C         -0.4236027228       -6.6101508703       -3.3692403686
 C         -1.1001301898       -7.1460195936       -2.2889797618
 C         -1.3260371397       -6.4185527034       -1.1278570301
 C         -2.1047844006       -7.0464525215        0.0071648394
 C         -3.5104560319       -7.4142922110       -0.5088160263
 C         -1.3643068626       -8.3141479929        0.4784211970
 C         -2.2449220199       -6.1074112542        1.1849199107
 C         -2.9233808749       -6.5293809238        2.3208480109
 C         -3.0492546483       -5.7266003234        3.4395564921
 C         -2.4661119954       -4.4678648813        3.4454981481
 C         -1.7897109179       -4.0209509447        2.3333047799
 C         -1.6885894676       -4.8176773111        1.1820781511
 C          0.8979791497       -2.8389170506        0.1864811218
 C          1.4557546613       -1.5756592563        0.2111632657
 C          0.6034341203       -0.4822400476        0.1414730920
 N          0.8970766816        0.8630715133        0.1668975943
 C          2.1832101373        1.4159772342        0.1893935535
 C          2.5068909220        2.4317481920        1.1300244008
 C          3.7711440208        2.9649167742        1.1522401779
 C          4.7362924411        2.5497702670        0.2377909311
 C          4.4179148756        1.5300136219       -0.6854252515
 C          3.1572347743        0.9651523531       -0.6896483274
 S          5.7028984384        0.8491342417       -1.6812471160
 O          5.2399705988       -0.4363253992       -2.1907874448
 O          6.1481933229        1.7716348107       -2.7066848235
 C          6.9649245714        0.5493730151       -0.4796608864
 C          7.5350917312       -0.7084162718       -0.3389307616
 C          8.4398599459       -0.9479137462        0.6747716801
 C          8.7539153922        0.0680951745        1.5888859928
 C          8.1595663823        1.3076017049        1.4750490557
 C          7.2790027678        1.5649965613        0.4324314075
 S          6.4009089517        3.0971591010        0.3347444632
 O          6.5808162073        3.8142758487        1.5904903129
 O          6.7918790451        3.8456179183       -0.8453527566
 C         -4.9900755529        2.9748406885        1.1034285252
 C         -4.4798343463        2.4023586029        2.2787526226
 C         -5.2459135089        2.3293617528        3.4198847288
 C         -6.5364730755        2.8379694933        3.4188373861
 C         -7.0341022021        3.4290146461        2.2721522261
 C         -6.2867437924        3.5148913104        1.1048682310
 H         -8.6216711603        3.9345494110       -1.3840713649
 H         -7.9518826148        2.4296194729       -0.7537883842
 H         -8.8936343930        3.4900429428        0.2960752623
 H         -7.6384013908        6.1832884090       -0.5841796210
 H         -7.8697639547        5.7169593298        1.0974605321
 H         -6.2678476542        6.1849212250        0.5262581772
 H         -7.2767545144        5.2256876043       -2.5693130825
 H         -5.8166071026        5.2033429809       -4.5225164957
 H         -3.6012960010        4.0945975047       -4.3940910316
 H         -2.8743951439        3.0690427308       -2.2998349799
 H         -1.9995925147        4.4560645346        0.0000044043
 H          0.3277331330        3.6318815182        0.0967279475
 H         -3.5206001057        0.4545195137        0.0099602432
 H         -2.4200835386       -2.0822420938        0.0084584238
 H          0.1624751052       -3.5325690677       -2.1386204412
 H          0.5420637763       -4.8588846450       -4.1509649977
 H         -0.2602688692       -7.2044120752       -4.2550936569
 H         -1.4616965636       -8.1596963142       -2.3592816094
 H         -3.4455933731       -8.1116715430       -1.3384203562
 H         -4.1003932861       -7.8748696470        0.2778283216
 H         -4.0278425846       -6.5198384724       -0.8502743632
 H         -1.2523322693       -9.0208415114       -0.3382056336
 H         -0.3735838704       -8.0522910823        0.8452431630
 H         -1.9089851986       -8.8040815468        1.2797557046
 H         -3.3649374330       -7.5131886393        2.3401843962
 H         -3.5846743962       -6.0852129236        4.3051672896
 H         -2.5330161359       -3.8384381385        4.3196852484
 H         -1.3218876677       -3.0500037104        2.3499362521
 H          1.5342349056       -3.7088139137        0.2399236022
 H          2.5235793557       -1.4473243154        0.2909014390
 H          1.7635538358        2.7524026874        1.8416847880
 H          4.0583807205        3.7149777582        1.8730201199
 H          2.9575181532        0.1870374790       -1.4101858322
 H          7.2476237889       -1.4730647803       -1.0444862881
 H          8.9013709957       -1.9181859612        0.7699382743
 H          9.4561879805       -0.1231388886        2.3850286955
 H          8.3558470197        2.1054361498        2.1751229098
 H         -3.4717876691        2.0209703945        2.2899327345
 H         -4.8352765690        1.8824833927        4.3123927806
 H         -7.1454512087        2.7855194506        4.3082107824
 H         -8.0326635925        3.8360600069        2.2939672808
