  77
 
 O         -4.9263025934       -2.4097552937       -2.5642545075
 C         -4.3951319767       -1.7911741980       -1.6222719797
 C         -2.9528850187       -1.8983100063       -1.3563293736
 C         -2.0954951197       -2.2049395851       -2.4219369953
 C         -0.7334976006       -2.2938231784       -2.2364242202
 C         -0.1941377394       -2.0988366092       -0.9659603572
 N          1.2098708578       -2.1664750641       -0.7628143056
 C          2.0380043787       -1.1854811008       -1.2847037570
 C          1.5386621384       -0.0889441641       -1.9853053916
 C          2.3933166029        0.8699645279       -2.4972446004
 C          3.7639164763        0.7522908518       -2.3261101914
 C          4.2787938006       -0.3221599998       -1.6217485648
 C          3.4280546100       -1.2803771601       -1.0934515344
 O          3.9931544970       -2.3010215045       -0.3870335225
 C          3.1644743669       -3.2518949306        0.1377002749
 C          3.7535965556       -4.2846326711        0.8491708657
 C          2.9706574406       -5.2922129958        1.3863861711
 C          1.5973928438       -5.2716448898        1.1976997791
 C          1.0007773881       -4.2451381345        0.4886301060
 C          1.7699041467       -3.2106859741       -0.0417381700
 C         -1.0391317315       -1.8411884400        0.1109113816
 C         -2.3994586221       -1.7401947493       -0.0811026128
 C         -5.1846940009       -0.8886274951       -0.7733764944
 C         -6.5913830238       -0.9115182045       -0.8174610420
 C         -7.2912774165       -0.0240448169       -0.0185821957
 C         -6.6011669947        0.8673587529        0.7844652975
 C         -5.1941811098        0.8525241804        0.7486086498
 C         -4.4146713852        1.7592339510        1.6023833152
 O         -4.9544587749        2.3734362570        2.5422922047
 C         -2.9718566281        1.8758035972        1.3436173093
 C         -2.4114826915        1.7229630949        0.0707809090
 C         -1.0510065511        1.8334863181       -0.1147689319
 C         -0.2127632569        2.0955770845        0.9663182333
 N          1.1915230017        2.1739059818        0.7692862026
 C          2.0250286456        1.1989460527        1.2939451408
 C          1.5313932587        0.0985399149        1.9925224338
 C          2.3913622400       -0.8539690873        2.5075067006
 C          3.7616553473       -0.7259637621        2.3414080516
 C          4.2709920031        0.3523208048        1.6388840252
 C          3.4150085019        1.3042145051        1.1076380308
 O          3.9750293271        2.3290437000        0.4032164414
 C          3.1412155339        3.2739265242       -0.1242017225
 C          3.7251610739        4.3109777230       -0.8336641832
 C          2.9367289860        5.3130271470       -1.3731957542
 C          1.5630662803        5.2825730693       -1.1888494777
 C          0.9715814919        4.2516080006       -0.4819594043
 C          1.7463947745        3.2225007518        0.0505385931
 C         -0.7592594796        2.2850060535        2.2345639798
 C         -2.1215002269        2.1867009590        2.4136009669
 N         -4.5363714115       -0.0161007523       -0.0105420011
 H         -2.5311526195       -2.3600123234       -3.3981449636
 H         -0.0810352237       -2.5170120176       -3.0678416307
 H          0.4738653068       -0.0048360281       -2.1293314024
 H          1.9851957748        1.7107905047       -3.0363156839
 H          4.4296378502        1.4956239871       -2.7336400889
 H          5.3388089716       -0.4367555778       -1.4640203530
 H          4.8255413714       -4.2805783835        0.9639939122
 H          3.4333833962       -6.0934173072        1.9400718735
 H          0.9823810019       -6.0609116725        1.6008013545
 H         -0.0663011910       -4.2422324049        0.3348325781
 H         -0.6202765912       -1.7254665493        1.0982449869
 H         -3.0418811219       -1.5453204190        0.7616224329
 H         -7.0798900351       -1.6248411320       -1.4626106069
 H         -8.3723749726       -0.0270824027       -0.0217561756
 H         -7.0975435594        1.5777614217        1.4268146492
 H         -3.0486431563        1.5248096571       -0.7751787201
 H         -0.6267231740        1.7220915149       -1.1002859908
 H          0.4667350592        0.0062515936        2.1325154872
 H          1.9876352424       -1.6979254150        3.0449981243
 H          4.4314631952       -1.4642936095        2.7513269215
 H          5.3306742120        0.4747991516        1.4848653202
 H          4.7974708378        4.3146457572       -0.9450747951
 H          3.3954510933        6.1175996084       -1.9253147918
 H          0.9437000983        6.0675338888       -1.5936825866
 H         -0.0959458355        4.2410124196       -0.3316459755
 H         -0.1122589318        2.5116177246        3.0693244194
 H         -2.5627263819        2.3375325151        3.3879712285
