  54
 
 O          6.3947120686       -2.3254576367        1.1806860867
 C          5.9588705932       -1.3199204324        0.6371405279
 C          6.8693768087       -0.2877291804        0.0841727120
 C          6.5600105048        0.4138617747       -1.0803920693
 C          7.4507397499        1.3441680054       -1.5843747607
 C          8.6484792884        1.5897221116       -0.9310956090
 C          8.9672722621        0.8877266541        0.2210479409
 C          8.0881729531       -0.0547580791        0.7198458873
 C          4.5039370940       -1.0831690561        0.5056177922
 C          3.6457607122       -2.1801645911        0.4196341451
 C          2.2823706572       -1.9999783926        0.3212120345
 C          1.7338816566       -0.7167467336        0.3226909179
 C          0.2816067685       -0.5193186843        0.2266322860
 C         -0.5973829378       -1.3460910362        0.9252626526
 C         -1.9617019953       -1.1496025941        0.8551798718
 C         -2.4823707843       -0.1286032828        0.0637841462
 N         -3.8674446436        0.0738164246       -0.0095491029
 C         -4.5186918949        1.2761794237        0.1865797047
 C         -4.0000778943        2.5181724783        0.5258641001
 C         -4.8867351800        3.5651027273        0.6919834810
 C         -6.2599823808        3.3878759319        0.5343487968
 C         -6.7840186653        2.1496257136        0.2198465396
 C         -5.9126447181        1.0814631046        0.0479249486
 C         -6.1022258406       -0.3103379189       -0.2532834525
 C         -7.2236463519       -1.0881327693       -0.5126630658
 C         -7.0488437515       -2.4281852412       -0.7963256009
 C         -5.7746806766       -2.9910881110       -0.8380210394
 C         -4.6442231127       -2.2380155788       -0.5835966380
 C         -4.8149493058       -0.8956768427       -0.2744597402
 C         -1.6127893606        0.6924651132       -0.6499601940
 C         -0.2485871355        0.5030830411       -0.5594031618
 C          2.5932575240        0.3775535619        0.4300745542
 C          3.9589136465        0.2011401021        0.5195731906
 H          5.6352305208        0.2110427400       -1.6001481932
 H          7.2100652333        1.8804486820       -2.4904302358
 H          9.3369925050        2.3231773668       -1.3240336095
 H          9.9034069229        1.0714554262        0.7272361773
 H          8.3224653624       -0.6167123836        1.6126903107
 H          4.0743387464       -3.1722316704        0.4194757248
 H          1.6346194690       -2.8587050115        0.2266615369
 H         -0.2053178086       -2.1289699177        1.5572774244
 H         -2.6320110557       -1.7747961980        1.4260261176
 H         -2.9398071237        2.6631155039        0.6676808009
 H         -4.5069684135        4.5422779222        0.9532377488
 H         -6.9206906942        4.2316302936        0.6704876703
 H         -7.8494473946        2.0090069011        0.1135588446
 H         -8.2100086799       -0.6487948996       -0.4960405641
 H         -7.9080937459       -3.0508166359       -0.9988978848
 H         -5.6680605272       -4.0390479831       -1.0782130096
 H         -3.6608993502       -2.6805856962       -0.6352736461
 H         -2.0144787576        1.4690319553       -1.2837015274
 H          0.4145457841        1.1367278557       -1.1292250095
 H          2.1815512856        1.3751451132        0.4667089490
 H          4.6062010630        1.0586176292        0.6289384922
