  76
 
 C          4.8500805917        4.0118505677       -0.8345045342
 C          3.7154155017        3.8897017089       -0.0507884922
 C          3.1694399790        2.6430453567        0.1938147181
 C          3.7463130972        1.5000401314       -0.3482986246
 C          3.1790616440        0.1329191961       -0.0192494747
 C          1.6654186669        0.1283904156        0.0363694761
 C          0.9310919015        0.8544719557       -0.8954308932
 C         -0.4488061752        0.8110720693       -0.8880404046
 C         -1.1430987891        0.0397281980        0.0400981938
 Si        -3.0348752669       -0.0178789109        0.0108787546
 C         -3.6797479450        1.7325146745       -0.3249456392
 C         -4.7866909115        1.9583529392       -1.1363893861
 C         -5.2619613101        3.2390157636       -1.3555053959
 C         -4.6345711338        4.3218934065       -0.7631463977
 C         -3.5287531036        4.1161691881        0.0449667136
 C         -3.0588223598        2.8334410782        0.2592005489
 C         -3.6979038624       -0.6379254042        1.6740168883
 C         -3.6960431040       -1.9990994403        1.9669641082
 C         -4.1651280412       -2.4692909133        3.1798572766
 C         -4.6488954090       -1.5810221089        4.1260588889
 C         -4.6611284287       -0.2242236982        3.8501373595
 C         -4.1890837456        0.2394615899        2.6352044942
 C         -3.6231844591       -1.2008742729       -1.3472050176
 C         -4.9230549094       -1.6994807224       -1.3299005311
 C         -5.3756864795       -2.5488382043       -2.3228565809
 C         -4.5299449256       -2.9186237842       -3.3554778125
 C         -3.2322085471       -2.4369260850       -3.3850903230
 C         -2.7864078748       -1.5861892301       -2.3894293248
 C         -0.3996929979       -0.6895378209        0.9607560294
 C          0.9825514072       -0.6522803768        0.9594185428
 C          3.8390628264       -0.3368967590        1.2628680561
 C          3.8213312712        0.2557548009        2.5072434963
 C          4.5241335012       -0.3468112584        3.5418408493
 C          5.2354315376       -1.5180598942        3.3302895868
 C          5.2616710200       -2.1151828058        2.0804948652
 C          4.5606750350       -1.5190136735        1.0453058150
 C          4.4064786505       -1.9059940594       -0.3474387329
 C          4.9026984123       -2.9933607584       -1.0473312581
 C          4.5901108433       -3.1165979618       -2.3913642501
 C          3.7944735567       -2.1734057868       -3.0236552063
 C          3.2943626846       -1.0817130540       -2.3267262211
 C          3.6081471300       -0.9498182183       -0.9910007441
 C          4.8917620905        1.6292819406       -1.1224402680
 C          5.4368577270        2.8775135861       -1.3671265765
 H          5.2756625283        4.9857378889       -1.0265879339
 H          3.2530889041        4.7693146895        0.3733436955
 H          2.2803488068        2.5576880812        0.8020672192
 H          1.4443512306        1.4681397126       -1.6224402578
 H         -1.0025572234        1.3912594555       -1.6132559768
 H         -5.2780240060        1.1177301669       -1.6055366361
 H         -6.1232165760        3.3943726892       -1.9897083268
 H         -5.0043064873        5.3229962483       -0.9322627946
 H         -3.0332127661        4.9581237781        0.5074803194
 H         -2.1918061737        2.6781755572        0.8864562082
 H         -3.3263404140       -2.6971861908        1.2285033547
 H         -4.1557406505       -3.5297286889        3.3888429184
 H         -5.0174654179       -1.9457021515        5.0740504944
 H         -5.0408248205        0.4727663975        4.5837668440
 H         -4.2055886263        1.2993323362        2.4235577252
 H         -5.5846389859       -1.4205033647       -0.5212389197
 H         -6.3885445838       -2.9249576733       -2.2925495084
 H         -4.8807454750       -3.5825062652       -4.1324768610
 H         -2.5667152853       -2.7263755462       -4.1860190352
 H         -1.7706563882       -1.2175635183       -2.4151501200
 H         -0.9126960852       -1.2950241545        1.6943921213
 H          1.5349425737       -1.2330019921        1.6842283680
 H          3.2706765055        1.1687220754        2.6786199720
 H          4.5171748215        0.1034223893        4.5236794628
 H          5.7762157508       -1.9684635626        4.1499446062
 H          5.8183226003       -3.0260914791        1.9173981840
 H          5.5202770804       -3.7305754139       -0.5560986467
 H          4.9688499130       -3.9576086852       -2.9538766647
 H          3.5607389856       -2.2887820471       -4.0719270189
 H          2.6753333571       -0.3510690403       -2.8257522163
 H          5.3607174074        0.7494206897       -1.5383339264
 H          6.3255002040        2.9623662531       -1.9755632221
