  60
 
 C         -6.4559989185       -4.1484708106        0.4763619799
 C         -7.0645211442       -3.3382376328       -0.4681712927
 C         -6.6551456135       -2.0295321378       -0.6354320261
 C         -5.6287975993       -1.5095952168        0.1520537320
 N         -5.2182780325       -0.1788788631       -0.0088149270
 C         -6.1777052557        0.8101095269       -0.2656741956
 C         -5.9049693194        1.8456593012       -1.1588067455
 C         -6.8550753087        2.8169572297       -1.4076035889
 C         -8.0895924031        2.7680677996       -0.7808935400
 C         -8.3673248186        1.7377030626        0.1023862450
 C         -7.4208811185        0.7660991713        0.3640734140
 C         -3.8713862884        0.1576723864        0.0869189711
 C         -2.8783573918       -0.7284510190       -0.3423247585
 C         -1.5500590897       -0.3894417829       -0.2438815444
 C         -1.1528752250        0.8474692368        0.2795181623
 C          0.2630558380        1.1578111939        0.3551159134
 C          0.7806179346        2.4051040805        0.6968944320
 N          2.0814323057        2.6313933029        0.7482686139
 C          2.9536479159        1.6853350959        0.4753471289
 N          4.2525412638        1.8858108503        0.5244351984
 C          5.0747542777        0.8904021988        0.2322000064
 C          4.5722319684       -0.3884625669       -0.1348685746
 N          3.2732484310       -0.6249714853       -0.1933197076
 C          2.4232594721        0.3456845847        0.0954731318
 N          1.1311859517        0.1731229581        0.0615291990
 C          5.6963547911       -1.2663169969       -0.3965400191
 C          5.8552177882       -2.5759741081       -0.7762508929
 C          7.1653308548       -3.0703074216       -0.9275207465
 C          8.2846068595       -2.3022925085       -0.7125524230
 C          8.1561888917       -0.9489974843       -0.3202183372
 C          9.1828628857       -0.0117561284       -0.0553276921
 C          8.8676201081        1.2724785082        0.3185784147
 C          7.5420688569        1.7277339971        0.4589527451
 C          6.5224118813        0.8429327943        0.2091161913
 C          6.8527392350       -0.4794639133       -0.1761125011
 C         -2.1494103104        1.7279878842        0.7111839783
 C         -3.4803190574        1.3902424276        0.6186200606
 C         -5.0231650676       -2.3270383081        1.1055524587
 C         -5.4341440437       -3.6368162645        1.2593931551
 H         -6.7763397593       -5.1715374378        0.6018237888
 H         -7.8590622060       -3.7301273362       -1.0859371823
 H         -7.1248164541       -1.4015173114       -1.3783285993
 H         -4.9471298790        1.8786108962       -1.6570970469
 H         -6.6326213252        3.6127909217       -2.1030769812
 H         -8.8304366307        3.5272833080       -0.9802779514
 H         -9.3257328828        1.6940097109        0.5984066749
 H         -7.6358235388       -0.0320351503        1.0595113129
 H         -3.1637826204       -1.6816974133       -0.7622628430
 H         -0.7859228904       -1.0717094754       -0.5819536586
 H          0.1523428496        3.2504945886        0.9263117576
 H          5.0070955637       -3.2183017683       -0.9564598486
 H          7.2874506703       -4.1016994900       -1.2264312370
 H          9.2691434928       -2.7281623875       -0.8419376862
 H         10.2162251243       -0.3129023530       -0.1490912990
 H          9.6677605248        1.9716613420        0.5159639738
 H          7.3453417847        2.7464355388        0.7554237715
 H         -1.8870105871        2.6807104967        1.1441807894
 H         -4.2355462853        2.0778735992        0.9701406226
 H         -4.2338322331       -1.9265921070        1.7246621451
 H         -4.9583924038       -4.2595052443        2.0025857652
