  70
 
 C          8.0880662660        3.4223747443        0.6126398337
 C          6.7323515834        3.6604352519        0.8319557517
 C          5.7794934713        2.6925638754        0.5780844111
 C          6.2129965667        1.4683041184        0.0879211078
 C          7.5886471312        1.2097484264       -0.1165008232
 C          8.5276336653        2.1994225356        0.1461177683
 C          7.6835152692       -0.1467151369       -0.5789170126
 C          8.7470611754       -0.9575002933       -0.9552227541
 C          8.4811373124       -2.2445305233       -1.3787655008
 C          7.1732450354       -2.7221636485       -1.4425541433
 C          6.0988765787       -1.9351121711       -1.0743166396
 C          6.3613576530       -0.6472342606       -0.6276756587
 N          5.4842572543        0.3389969633       -0.2245679836
 C          4.0862599059        0.2146446661       -0.1502477658
 C          3.2772314693        1.1535319435       -0.7943720843
 C          1.8973224236        1.0709948926       -0.7403199710
 C          1.3290617561        0.0218668249       -0.0411256638
 C          2.1470317403       -0.9525330552        0.6173956881
 C          3.5248105586       -0.8412819419        0.5608814602
 C          1.2615765966       -1.9097528286        1.2601036531
 C          1.2410901303       -3.0586772990        2.0458768613
 C         -0.0001448955       -3.5900127636        2.4077208225
 C         -1.2413348236       -3.0586932464        2.0456973601
 C         -1.2617027604       -1.9097790745        1.2599083611
 C         -2.1470794150       -0.9525843962        0.6170607658
 C         -3.5248484946       -0.8413391173        0.5603977469
 C         -4.0862218074        0.2146749144       -0.1506651825
 N         -5.4842194764        0.3390766381       -0.2249375234
 C         -6.2129329812        1.4682564011        0.0880596654
 C         -5.7793632100        2.6923331644        0.5786198681
 C         -6.7322005285        3.6600653684        0.8330880185
 C         -8.0879411256        3.4220643379        0.6138800734
 C         -8.5275512872        2.1993341857        0.1468162963
 C         -7.5885990490        1.2097692979       -0.1163200584
 C         -7.6835202971       -0.1465769236       -0.5790757775
 C         -8.7471070499       -0.9573044541       -0.9553951158
 C         -8.4812154853       -2.2442181006       -1.3793186043
 C         -7.1733207836       -2.7218003087       -1.4434521314
 C         -6.0989090911       -1.9348037683       -1.0752197494
 C         -6.3613546376       -0.6470426902       -0.6282242196
 C         -3.2771332657        1.1536144116       -0.7946236074
 C         -1.8972272847        1.0710467005       -0.7404644479
 C         -1.3290348342        0.0218708678       -0.0412865240
 N         -0.0000003578       -0.3063146002        0.1732589065
 C         -0.0000432645       -1.4344119067        0.9329875214
 H          8.8019488855        4.2061191793        0.8205096410
 H          6.4200102757        4.6224898999        1.2118399292
 H          4.7330159197        2.8812816766        0.7652136733
 H          9.5794442498        2.0107275798       -0.0099928998
 H          9.7595885339       -0.5835706463       -0.9189705932
 H          9.2945539836       -2.8915468652       -1.6733579172
 H          6.9955674259       -3.7295403438       -1.7905976153
 H          5.0881599713       -2.3090151445       -1.1412783250
 H          3.7452935347        1.9513191526       -1.3509022402
 H          1.2859327561        1.8047710904       -1.2413862853
 H          4.1580189621       -1.5530011323        1.0682073221
 H          2.1474855357       -3.5413576525        2.3788995821
 H         -0.0001826115       -4.4821294624        3.0183651574
 H         -2.1477839347       -3.5414026073        2.3785273911
 H         -4.1581143374       -1.5530821955        1.0676162132
 H         -4.7328390941        2.8810215880        0.7655298993
 H         -6.4198076023        4.6220097264        1.2132015727
 H         -8.8018060322        4.2056994187        0.8222222034
 H         -9.5794098739        2.0106122969       -0.0089757563
 H         -9.7596350742       -0.5833999555       -0.9189147499
 H         -9.2946617794       -2.8911830727       -1.6739390432
 H         -6.9956777773       -3.7290897963       -1.7917644759
 H         -5.0881909517       -2.3086645815       -1.1424177111
 H         -3.7451387666        1.9514711055       -1.3511042782
 H         -1.2857885356        1.8048517206       -1.2414306929
