  64
 
 C         -7.0095696335       -0.3361571638       -0.0688825435
 C         -5.7337733984       -0.0510092985        0.7442053356
 C         -6.0785405311        0.1226356662        2.2347270649
 C         -5.1110924907        1.2368843513        0.2396729095
 C         -5.8390358186        2.4172943205        0.3038712448
 C         -5.3168036180        3.6263257272       -0.1161063992
 C         -4.0235814830        3.6705213277       -0.6041789112
 C         -3.2781219530        2.5129683407       -0.6796309340
 C         -3.8123291679        1.2857336020       -0.2765574565
 N         -3.0405749407        0.1360802648       -0.3688351718
 C         -1.7201638650        0.2315918147       -0.8771688524
 C         -1.5027634834        0.3727194677       -2.2444815492
 C         -0.2145310032        0.4748312198       -2.7282374620
 C          0.8753104380        0.4165083777       -1.8608149887
 C          2.2423932464        0.5675573572       -2.4231319851
 O          2.4469267368        1.2318726212       -3.4201990176
 C          3.3428550924       -0.1153459649       -1.7016242906
 C          3.1640265473       -1.3397364295       -1.0580467637
 C          4.2192376098       -1.9416625815       -0.4047027312
 C          5.4660505984       -1.3237640456       -0.3758815233
 S          6.7808699848       -2.1534614143        0.4672617488
 C          7.7870901287       -0.7982841975        1.0352783692
 C          9.1666614664       -0.9099114582        0.9433374291
 C          9.9681541949        0.1096205800        1.4255238048
 C          9.3962905705        1.2361611983        1.9927001830
 C          8.0176793077        1.3374220528        2.0895302509
 C          7.2085106443        0.3186760476        1.6220333885
 C          5.6651157008       -0.1235823036       -1.0498209317
 C          4.6098916084        0.4677801878       -1.7105382149
 C          0.6513629313        0.2855854128       -0.4912069630
 C         -0.6373707426        0.1960510214       -0.0038133930
 C         -3.5121738758       -1.0990968564        0.0495395075
 C         -2.7093924234       -2.2334780760       -0.1024535585
 C         -3.1484116056       -3.4744266617        0.3081242492
 C         -4.4038008695       -3.6083277968        0.8726007138
 C         -5.2084298988       -2.4916981313        1.0025860787
 C         -4.7923901053       -1.2310340002        0.5967947160
 H         -7.7174368281        0.4832496644        0.0195899017
 H         -6.7576553044       -0.4602906664       -1.1204772417
 H         -7.4959725509       -1.2441867345        0.2764047615
 H         -5.1725951365        0.3268875097        2.8025563260
 H         -6.5378571808       -0.7773346096        2.6341876561
 H         -6.7676378046        0.9498373059        2.3803821270
 H         -6.8448557277        2.3993119060        0.6955354028
 H         -5.9116348930        4.5247507620       -0.0541573174
 H         -3.5896474024        4.6058932719       -0.9245200057
 H         -2.2659296101        2.5597053413       -1.0508920380
 H         -2.3489811447        0.4092507409       -2.9142475114
 H         -0.0282905750        0.5930646008       -3.7851507803
 H          2.2019101785       -1.8296465730       -1.0845300515
 H          4.0886244489       -2.8905387643        0.0930622522
 H          9.6012725725       -1.7907639591        0.4960558052
 H         11.0419685240        0.0244579796        1.3524012226
 H         10.0230648703        2.0334103847        2.3627194061
 H          7.5676663830        2.2099196528        2.5393288788
 H          6.1340525984        0.3905935122        1.7063737267
 H          6.6404142265        0.3398218046       -1.0577839496
 H          4.7488280499        1.3972199920       -2.2422106164
 H          1.4852999792        0.2828515533        0.1949511906
 H         -0.8182900073        0.0997832605        1.0565934685
 H         -1.7334953222       -2.1394148512       -0.5539455142
 H         -2.5090753763       -4.3355552652        0.1823822006
 H         -4.7583062899       -4.5733842419        1.2009345456
 H         -6.1910135766       -2.6127371570        1.4329858009
