  164
 
 C         12.0745879762        1.1353916873       -0.4068632261
 C         10.7037468650        0.8170518674       -0.9239508357
 C         10.5403101443        0.0132941050       -2.0478947570
 C          9.2719341968       -0.2950759481       -2.5084364269
 C          8.1515669254        0.1892680166       -1.8619650656
 C          8.2969265424        0.9919317004       -0.7308141133
 N          7.1706987661        1.4865630057       -0.0621802106
 C          7.1843259999        2.7743651295        0.4838811935
 C          6.5487934427        3.0394230099        1.6967796478
 C          6.5695817225        4.3187062318        2.2180023815
 C          7.2190004480        5.3421180747        1.5506708022
 C          7.8607752634        5.0952098241        0.3402250559
 C          8.5718546003        6.2031141079       -0.3770998684
 C          7.8343386607        3.8136234751       -0.1832193171
 C          6.0371455234        0.6808372754        0.0821325227
 C          6.1729702419       -0.6897400381        0.2924515669
 C          5.0405573791       -1.4928030791        0.4209647105
 C          3.7445250433       -0.9339518869        0.3733450756
 C          3.6351852448        0.4589717334        0.1817931013
 C          4.7683475243        1.2509673746        0.0115742655
 N          2.3775258930        1.0450013362        0.1424112684
 C          2.3246153445        2.4603719294        0.1190878048
 C          1.9766858903        3.1838006673       -1.0297768922
 F          1.6722589941        2.4920446493       -2.1548185307
 C          1.9316520546        4.5590001700       -1.0580516352
 C          2.2473252646        5.2749801872        0.0918597885
 C          2.6007513777        4.5996061830        1.2548058199
 C          2.6351161802        3.2238024687        1.2524257377
 F          2.9856631540        2.5705771238        2.3857226043
 C          1.1925003014        0.3344788181        0.1267481344
 C         -0.0123395944        1.0296730569        0.0711035107
 C         -1.2367074496        0.3742274142       -0.0208600018
 C         -1.2673149140       -1.0388426724       -0.1893214077
 C         -0.0508409009       -1.7007655775       -0.0145076345
 C          1.1834254045       -1.0868016958        0.2054893201
 B          2.5127174435       -1.8087426649        0.4927552540
 C          2.7956212971       -3.2769870152        0.8673860159
 C          1.8305935440       -4.2226846947        1.2440400029
 C          2.1399110186       -5.5343310397        1.5242428672
 C          3.4605066389       -5.9795701282        1.4474727987
 C          3.7954597616       -7.4144379565        1.7206256412
 C          4.4444321485       -5.0642180262        1.1275536187
 C          4.1415215120       -3.7228988137        0.8602696098
 N          5.1851279425       -2.8514636208        0.6004905023
 C          6.5121420943       -3.3798247271        0.5510295288
 C          7.2835614586       -3.4467941659        1.7033214278
 C          8.5718354291       -3.9479554221        1.6273313696
 C          9.0836857131       -4.3768323257        0.4159186150
 C          8.3180647377       -4.3161464844       -0.7442312121
 C          8.8761580573       -4.8003840294       -2.0471259604
 C          7.0274913656       -3.8117906563       -0.6633791630
 B         -2.6175588779       -1.7046639070       -0.5099624492
 C         -2.9432414055       -3.1356813888       -0.9796302657
 C         -2.0087309932       -4.0730429905       -1.4436066732
 C         -2.3554737350       -5.3549717769       -1.8054858890
 C         -3.6841176599       -5.7756515778       -1.7266037749
 C         -4.0581473144       -7.1790828887       -2.0958785553
 C         -4.6394043955       -4.8636539973       -1.3214018629
 C         -4.2989961719       -3.5504739464       -0.9723591921
 N         -5.3151124036       -2.6746833275       -0.6312074730
 C         -6.6532589095       -3.1737924966       -0.5795610287
 C         -7.4539820470       -3.1540433089       -1.7135562069
 C         -8.7537826161       -3.6235579140       -1.6327336643
 C         -9.2481184311       -4.1067935635       -0.4345520971
 C         -8.4528034432       -4.1344718390        0.7066442605
 C         -8.9916644663       -4.6786975758        1.9938504970
 C         -7.1507060864       -3.6612376153        0.6211538804
 C         -5.1342138851       -1.3328271542       -0.3739656279
 C         -6.2436172975       -0.5115095878       -0.1792629805
 C         -6.0691554877        0.8409812215        0.1060641134
 N         -7.1801285119        1.6664734718        0.3063509214
 C         -7.1697769699        2.9772841387       -0.1813606031
 C         -7.7905653812        4.0034252055        0.5320270188
 C         -7.7667273438        5.2937590861        0.0405598635
 C         -7.1261643757        5.5828810191       -1.1526420730
 C         -6.5026291721        4.5725276930       -1.8770058069
 C         -5.8374507104        4.8635291623       -3.1886422703
 C         -6.5326776952        3.2773580706       -1.3851092016
 C         -8.3083840065        1.1649150009        0.9655736813
 C         -8.1652293932        0.3089288818        2.0567219304
 C         -9.2872326630       -0.1863410283        2.6927811183
 C        -10.5540265947        0.1620782942        2.2591312375
 C        -10.7153117214        1.0178598915        1.1728711369
 C        -12.0897274242        1.3932128873        0.7061729945
 C         -9.5893723127        1.5088437054        0.5336991346
 C         -4.7855741777        1.3744076062        0.1926083665
 C         -3.6755249212        0.5663469235       -0.0414619843
 C         -3.8241804413       -0.8089819047       -0.3156139590
 N         -2.4019251487        1.1163351052        0.0144758573
 C         -2.3133711295        2.5255094131        0.1204482717
 C         -2.6389731282        3.3613532900       -0.9559811195
 F         -3.0318609755        2.7828775804       -2.1162579124
 C         -2.5808981095        4.7338938062       -0.8774857032
 C         -2.1848500506        5.3315578458        0.3138164480
 C         -1.8510399593        4.5423294320        1.4093515019
 C         -1.9220098470        3.1721574348        1.3004619870
 F         -1.6021973096        2.4083072092        2.3735832593
 C          9.5783368236        1.2950233547       -0.2724168176
 H         12.4389770597        0.3131153014        0.2100043027
 H         12.7743194713        1.2730328161       -1.2284456284
 H         12.0605389091        2.0358976745        0.2023909655
 H         11.4094822359       -0.3675911287       -2.5638028255
 H          9.1532177191       -0.9095059113       -3.3889841435
 H          7.1622376788       -0.0405626921       -2.2289119113
 H          6.0446332707        2.2433815584        2.2245796475
 H          6.0793862569        4.5135779821        3.1609576865
 H          7.2309056467        6.3381386153        1.9682586869
 H          8.8596288712        5.8970391576       -1.3796187298
 H          7.9359739982        7.0840663433       -0.4451675967
 H          9.4721544757        6.4840250596        0.1696449478
 H          8.3187221901        3.6073298527       -1.1271386481
 H          7.1636691689       -1.1108816489        0.3498343150
 H          4.6867316363        2.3092233055       -0.1856506378
 H          1.6552711795        5.0575258087       -1.9729593499
 H          2.2163067811        6.3509769243        0.0817203720
 H          2.8464453980        5.1311263870        2.1594860294
 H          0.0037266737        2.1081022005        0.1032387382
 H         -0.0669053654       -2.7753410702       -0.0511201526
 H          0.8046165980       -3.9038365741        1.3363416208
 H          1.3584201981       -6.2274484375        1.8035120686
 H          3.3405329220       -8.0566535709        0.9660984630
 H          4.8710479359       -7.5737237534        1.7086132177
 H          3.4059344964       -7.7177134095        2.6919020273
 H          5.4713203685       -5.3967173259        1.0956427831
 H          6.8717413562       -3.1074436971        2.6421593195
 H          9.1780562518       -4.0014716062        2.5195633701
 H         10.0902903294       -4.7656265482        0.3662371887
 H          9.8734426589       -4.3956726416       -2.2084221687
 H          8.2370541579       -4.5096834568       -2.8765364330
 H          8.9554276951       -5.8875498582       -2.0376347519
 H          6.4080135980       -3.7499475940       -1.5465277057
 H         -0.9778496795       -3.7700641702       -1.5371440729
 H         -1.5976385402       -6.0448371645       -2.1501388514
 H         -3.7963032974       -7.3797078208       -3.1347796168
 H         -5.1248714431       -7.3460827634       -1.9669860591
 H         -3.5145627587       -7.8905731678       -1.4745886721
 H         -5.6729288724       -5.1749066473       -1.2871124568
 H         -7.0558179048       -2.7719959298       -2.6418048577
 H         -9.3830105017       -3.6091849531       -2.5104017338
 H        -10.2642266742       -4.4694044705       -0.3808006004
 H         -9.0866558653       -5.7628124539        1.9290558382
 H         -9.9793103399       -4.2695416346        2.1972673717
 H         -8.3315669171       -4.4409697120        2.8237209689
 H         -6.5086511071       -3.6663464495        1.4902786483
 H         -7.2457644087       -0.9033605438       -0.2440094663
 H         -8.2797931482        3.7817046870        1.4689778799
 H         -8.2445592285        6.0849336576        0.6001919624
 H         -7.1112890731        6.5967820555       -1.5247314041
 H         -4.9926922459        4.1974895032       -3.3485703324
 H         -6.5442344363        4.7087517215       -4.0048761126
 H         -5.4963082674        5.8952969555       -3.2304143839
 H         -6.0557719454        2.4834253750       -1.9424622409
 H         -7.1762050761        0.0442056224        2.4003233692
 H         -9.1698913795       -0.8437329184        3.5419113281
 H        -11.4252494886       -0.2283136823        2.7643404735
 H        -12.6747409698        0.5003231414        0.4901465787
 H        -12.0431504301        2.0071066476       -0.1896325546
 H        -12.6108299836        1.9518099577        1.4833538424
 H         -9.6957111763        2.1664137759       -0.3175537548
 H         -4.6755125677        2.4164858667        0.4519686883
 H         -2.8429242092        5.3230723263       -1.7406133975
 H         -2.1355165429        6.4043449628        0.3884709856
 H         -1.5413917938        4.9800477527        2.3445568887
 H          9.6878464710        1.9114862218        0.6086081043
