127
 xtb: 6.7.1 (edcfbbe)
C          -11.64127790568710       -1.12518689158338        5.56738852617899
C          -10.79028394300690       -1.53632071027566        4.63442686343255
C          -10.47284311104037       -0.86020082428672        3.38165346591615
C           -9.65282160513821       -1.50493790198278        2.45405406610573
C           -9.33068686104756       -0.91232959875447        1.24894435426053
C           -9.80579558346403        0.35515351388785        0.94064549117785
C           -9.47665123532749        1.01211962105377       -0.37811922272495
O           -8.30373682968971        0.52629693399766       -0.99931226213939
C           -7.09665623034736        0.79055121966491       -0.42961078857356
C           -6.89483105081083        1.48967730038537        0.75199522841894
C           -5.61163519917165        1.68500344582959        1.25405782043722
C           -4.48635892678059        1.21948607083701        0.60344327687443
C           -4.67616570466929        0.54255077138072       -0.59410346780038
C           -5.96794974539300        0.30539096163685       -1.10336278494111
C           -5.81060593206838       -0.46900306858171       -2.30274959595775
C           -6.70789612899039       -0.97538526062617       -3.23395642419186
C           -6.21070565132367       -1.67060511713756       -4.31924634039244
C           -4.84014809822003       -1.84695396543054       -4.48976623723631
C           -3.93070190839875       -1.35075708942309       -3.57355283120510
C           -4.42369736039452       -0.67915691007959       -2.46568251428691
N           -3.74410473847505       -0.05853457796215       -1.42752536096143
C           -2.36504266641131       -0.04953670286690       -1.24391936788263
C           -1.71257307963187        1.14033486043655       -0.92161692938764
C           -0.34080099595632        1.16184537231575       -0.71734046593835
N            0.30772480747583        2.36075996850394       -0.42461677658434
C            0.24345561486487        3.52033656890415       -1.18268722733570
C           -0.49079101763451        3.79036155321347       -2.32672438939081
C           -0.34495111832907        5.03814309692246       -2.90596956529714
C            0.51552211084504        5.99195703242201       -2.36867979594915
C            1.26586356137036        5.71950861454003       -1.24114820744317
C            1.13444964621790        4.47344711451373       -0.64195348985038
C            1.75311633291933        3.85590182900195        0.49809052901619
C            2.70353142249771        4.30040177645344        1.42665795045403
O            3.18851468057892        5.55961162422234        1.24583811429937
C            4.20584875729532        6.02918929095374        2.10986314921813
C            5.51182815476334        5.28035461216568        1.99283096721324
C            6.41068936474378        5.27132445161588        3.05499225220066
C            7.61182499663412        4.59944131213431        2.95595658731979
C            7.95045668670777        3.90176211971669        1.79340324589493
C            9.19720826820129        3.16034533877060        1.64188728832652
C           10.09572513836349        2.90292764321704        2.60598247653647
C            7.04600646114212        3.92825154421344        0.72980122631150
C            5.84808627252665        4.60874795916861        0.82452799432492
C            3.06728543959806        3.43285215663440        2.44699268287875
C            2.49488648825860        2.16874721185261        2.55000227074403
C            1.56421577645857        1.70910190022471        1.64123305325137
C            1.22091422554116        2.55656263632988        0.59793960414097
C            0.40095091216922       -0.02765840627240       -0.84408312642857
C            1.80913497060369       -0.00018662221526       -0.80469394621830
N            2.95628671804875        0.02582633687182       -0.85227598337924
C           -0.26421476517562       -1.23242964658632       -1.14185307106510
N            0.46952678891073       -2.41776750480834       -1.22620508091207
C            0.57491368126533       -3.23335678379914       -2.34084810884470
C           -0.06198718960384       -3.13891480489143       -3.56721797344741
C            0.24462885784914       -4.08432465990949       -4.52880517191260
C            1.17029852894889       -5.09474441054299       -4.28115031178501
C            1.82585931509197       -5.17943674614758       -3.06783830223735
C            1.53253184787432       -4.24029121135895       -2.08752580788293
C            2.01979409568265       -4.01467899571834       -0.75516398014612
C            2.96948516485760       -4.66876116979837        0.04060765225459
O            3.61276389105379       -5.72703468805603       -0.52346403914525
C            4.67055174989623       -6.34148421148073        0.18636686478401
C            5.84716219794213       -5.43415065984659        0.45697380214799
C            6.08564494369022       -4.31519575349201       -0.33082859943862
C            7.15115797955611       -3.47896275941071       -0.06250763247526
C            8.02358762231799       -3.74646999530628        0.99218253643994
C            9.15181737227465       -2.88120172792271        1.32185580660624
C            9.30658332016365       -1.61886197144789        0.94110373706629
C            7.79811126644347       -4.89430799522228        1.75483002120298
C            6.72057807558791       -5.71869304385049        1.50029004347583
C            3.17675306025489       -4.19056117162028        1.32691045468514
C            2.46249504305351       -3.09821906134826        1.80968717433327
C            1.53746499524728       -2.42857062792813        1.03594062167174
C            1.34298247064185       -2.88449243550330       -0.25957347224071
C           -1.63419450030584       -1.23411935002161       -1.34910829845251
C          -10.61774513119598        1.00989381194169        1.86044447141868
C          -10.94906969458151        0.41228544986260        3.05921730750246
H          -12.20409971197950       -0.20802978750637        5.48300684228762
H          -11.81206180065390       -1.69869264947939        6.46036215924507
H          -10.26850296342589       -2.47202128108991        4.78012693179053
H           -9.26932636752695       -2.48800681828250        2.67907837732554
H           -8.70020304258117       -1.43056901048099        0.54154788444716
H          -10.27046681947138        0.79147002362638       -1.10226559026043
H           -9.42208844225651        2.10443935815266       -0.25855497599881
H           -7.73150041748092        1.87230560543138        1.31268252038621
H           -5.49816868807016        2.21697856952160        2.18638809345387
H           -3.50524588065436        1.36531222830906        1.02594952080637
H           -7.76671144912487       -0.81423211269130       -3.10461604410896
H           -6.89128617083926       -2.07453240027227       -5.05490160974813
H           -4.47783736442937       -2.37764566944595       -5.35820232466148
H           -2.87150136010384       -1.47497465798255       -3.73205247264451
H           -2.27344330339932        2.05724143568072       -0.83885991467155
H           -1.14528141679178        3.05445072828891       -2.76390231111777
H           -0.90622844030392        5.27668412998872       -3.79469671234703
H            0.60319955841515        6.95706737454805       -2.84472662440378
H            1.94519511311952        6.44725416363898       -0.82098105288195
H            3.85359778373738        6.02339378558837        3.16066249903369
H            4.35035192505418        7.06832521558332        1.81228373513845
H            6.13925750841184        5.73832488690231        3.99267113269127
H            8.26230977244491        4.54707157049789        3.81377985084665
H            9.31250494455706        2.69023685396089        0.65976806098437
H           10.09867759518261        3.44046435495921        3.52495999042930
H           11.04287567516783        2.44443221299537        2.32137312342361
H            7.28982815129614        3.43500454703937       -0.20062598291648
H            5.17184387426560        4.65116560440167       -0.01937482808000
H            3.80131697711502        3.71920304135068        3.18142534952637
H            2.79139391033386        1.52626245497571        3.36874717806199
H            1.12678635453492        0.72548270106487        1.74327339259772
H           -0.76534992587774       -2.34687679821491       -3.77416998685174
H           -0.24172772902951       -4.03426111899025       -5.49292796907249
H            1.38295878045824       -5.81597164517584       -5.05746205709816
H            2.55586608303128       -5.94945909065339       -2.87528766452899
H            4.98044422369215       -7.16759184511519       -0.46718010774146
H            4.29719291025442       -6.77576721085335        1.12503479283112
H            5.42856024807217       -4.09364529229327       -1.15291598931669
H            7.31685593704683       -2.62023731957524       -0.68131769558389
H            9.89739937026321       -3.34634584168009        1.97627560195485
H            8.58901498357395       -1.11312225448193        0.34320340087710
H           10.17173252736260       -1.05608950082452        1.25450799912210
H            8.46426067587008       -5.13978975143788        2.57696497307497
H            6.54765567072891       -6.59923891874473        2.11671047720096
H            3.90311886785696       -4.65556083666938        1.97222120037041
H            2.64576121743423       -2.76781905282283        2.81992390322134
H            0.98815731511269       -1.58791000327548        1.42788728415484
H           -2.13848875809321       -2.16589434017316       -1.55252440154362
H          -10.99119295498211        2.00049702950635        1.63089461295112
H          -11.57719894206400        0.94811860534674        3.75470767434410
