  75
 
 N          0.2410584516        1.5149295336       -0.5288085623
 C          0.1335563834        0.3722811312       -0.4108509103
 C          0.0384927044       -1.0216528621       -0.3577970118
 C          1.1984076158       -1.7982853257       -0.3780316976
 C          2.5346569946       -1.2305202902       -0.2193418992
 C          2.7896733552       -0.1363554897        0.6098207519
 C          4.0635475931        0.3715422251        0.7289668692
 C          5.1271323358       -0.2019804568        0.0274676674
 N          6.4138318636        0.3274348051        0.1347493588
 C          7.5226893634       -0.5251098105        0.1402152448
 C          7.4587176009       -1.7596945599        0.7875945879
 C          8.5549772709       -2.5993819363        0.7917654551
 C          9.7294892205       -2.2235907877        0.1597876851
 C          9.7985843128       -0.9979344165       -0.4828982881
 C          8.7061774848       -0.1531382353       -0.4984145122
 C          6.5930960667        1.7120156804        0.2295193741
 C          5.7611016590        2.5815472824       -0.4768431726
 C          5.9423117378        3.9470810647       -0.3799559542
 C          6.9535812568        4.4669571210        0.4120061864
 C          7.7831088840        3.6074423074        1.1141549431
 C          7.6063866229        2.2402721881        1.0301103618
 C          4.8811126856       -1.3187856644       -0.7765165827
 C          3.6077951827       -1.8259366327       -0.8894439362
 N          1.1474844143       -3.1228799042       -0.5957426460
 C         -0.0447406386       -3.6869235895       -0.8023320739
 N         -1.1675482551       -3.0582418210       -0.7418748994
 C         -1.2273183783       -1.7226319536       -0.4741502713
 C         -2.5163715177       -1.1501362760       -0.3306855449
 C         -2.7581232686        0.1402458600        0.1988469291
 C         -4.0310123435        0.6277584924        0.3270253419
 C         -5.1407489903       -0.1374231187       -0.0630506207
 N         -6.4378461213        0.3714159782        0.0602390909
 C         -6.6796565815        1.7186656571       -0.2006347644
 C         -7.6291346308        2.4262447580        0.5426115382
 C         -7.8536004720        3.7638116456        0.2880968273
 C         -7.1387892367        4.4205250501       -0.7019839410
 C         -6.1930750955        3.7248412514       -1.4398304455
 C         -5.9618104151        2.3863577641       -1.1969351460
 C         -7.4773753526       -0.4726499700        0.4447316360
 C         -8.7586034233       -0.3119628037       -0.0912624656
 C         -9.7795262380       -1.1611984263        0.2837862586
 C         -9.5462719551       -2.1833812327        1.1911902430
 C         -8.2769267981       -2.3495881707        1.7239429886
 C         -7.2484789222       -1.5052237649        1.3586832314
 C         -4.9208404668       -1.4286516990       -0.5724346212
 C         -3.6528043672       -1.9211337774       -0.6937406058
 H          1.9923453672        0.3037899107        1.1880159265
 H          4.2499717476        1.2128685361        1.3797931072
 H          6.5478674507       -2.0483376299        1.2910536961
 H          8.4942960124       -3.5504138533        1.2996780973
 H         10.5850259691       -2.8814519419        0.1679030810
 H         10.7079992200       -0.7004273125       -0.9836135364
 H          8.7576598671        0.7964952904       -1.0104155118
 H          4.9788350912        2.1792229752       -1.1031248189
 H          5.2931726085        4.6089120896       -0.9333044125
 H          7.0938044593        5.5347518924        0.4824041923
 H          8.5690505143        4.0044001776        1.7395236618
 H          8.2455904539        1.5722997807        1.5887249043
 H          5.6968355728       -1.7722982176       -1.3202516228
 H          3.4155477464       -2.6817836393       -1.5178521327
 H         -0.0548079082       -4.7437231258       -1.0303403672
 H         -1.9336325212        0.7457571004        0.5362289125
 H         -4.1920909507        1.6061651817        0.7566287289
 H         -8.1723095712        1.9215984460        1.3281584246
 H         -8.5848711500        4.3010360186        0.8736592522
 H         -7.3160282526        5.4673119166       -0.8952758172
 H         -5.6352679089        4.2281569084       -2.2151421506
 H         -5.2341456356        1.8421331636       -1.7799762535
 H         -8.9374535265        0.4714445933       -0.8130286088
 H        -10.7631944466       -1.0309698504       -0.1423990046
 H        -10.3475097930       -2.8462471781        1.4796167125
 H         -8.0889374030       -3.1397883297        2.4353916016
 H         -6.2633230473       -1.6258733780        1.7837978833
 H         -5.7678181131       -2.0210576428       -0.8885069600
 H         -3.4849696921       -2.9087921673       -1.0938189473
