  72
 
 C         -2.4475138985       -0.0000255845       -3.1523692522
 C         -3.3529178934       -0.0000129261       -2.1673180804
 C         -3.0010836812        0.0000051972       -0.6986160455
 C         -1.5314215756        0.0000220691       -0.4432211228
 C         -0.6396134226        0.0000044980       -1.4439108935
 C         -1.0497309417       -0.0000215610       -2.8551616505
 C          0.0696208239       -0.0000393738       -3.6229992371
 C          1.2288395408       -0.0000282900       -2.7496803087
 C          0.7969671459       -0.0000015070       -1.4353800180
 C          1.6886678324        0.0000063289       -0.2343057758
 C          3.1232589121       -0.0000210601       -0.6695804555
 C          4.2641856163       -0.0000251751        0.0860147674
 C          4.4839185935       -0.0000085946        1.4887130236
 C          5.7567609751       -0.0000151302        1.9554945836
 C          6.8753258012       -0.0000286359        1.0694824949
 C          6.7194616713       -0.0000460379       -0.2791770668
 C          5.4116448082       -0.0000450499       -0.8255594180
 C          4.9541139085       -0.0000657407       -2.1216489067
 C          3.5269541677       -0.0000432238       -2.0769849712
 C          2.6050841168       -0.0000454746       -3.0863120546
 C          1.4055815865       -1.2936307699        0.5122374260
 C          1.7051512873       -2.4769981570       -0.1590026331
 C          1.4555359037       -3.7125811261        0.4026090599
 C          0.8942688875       -3.7921905287        1.6681755854
 C          0.5951321445       -2.6337231472        2.3512231936
 C          0.8465869625       -1.3884872984        1.7777665246
 S          0.3907053813        0.0000721947        2.7671915198
 C          0.8466280733        1.3885875574        1.7777234732
 C          0.5952192979        2.6338488363        2.3511452973
 C          0.8943998512        3.7922858781        1.6680657478
 C          1.4556632167        3.7126204593        0.4025012458
 C          1.7052329359        2.4770127126       -0.1590758821
 C          1.4056201885        1.2936752174        0.5121973212
 C         -3.6041282870       -1.2561451403       -0.0806516328
 C         -2.8049301461       -2.3646055876        0.1759072329
 C         -3.3446892514       -3.5331467618        0.6808802679
 C         -4.7040471745       -3.6175926753        0.9329214072
 C         -5.5128622219       -2.5263502656        0.6870621865
 C         -4.9650501053       -1.3520844543        0.1853289486
 S         -6.0685538968       -0.0000263994       -0.0987471044
 C         -4.9650815096        1.3520614040        0.1853095191
 C         -5.5129205650        2.5263217093        0.6870260711
 C         -4.7041307338        3.6175870678        0.9328668272
 C         -3.3447713030        3.5331694348        0.6808237599
 C         -2.8049852626        2.3646331151        0.1758683554
 C         -3.6041578849        1.2561497195       -0.0806714484
 H         -2.7588662620       -0.0000394874       -4.1873237043
 H         -4.4099453934       -0.0000163352       -2.3879498535
 H         -1.2390250700        0.0000422952        0.5967014769
 H          0.1222707852       -0.0000602207       -4.6963316566
 H          3.6389103126        0.0000205180        2.1623729928
 H          5.9487340759        0.0000029623        3.0189245559
 H          7.8656344842       -0.0000415326        1.5027874355
 H          7.5718902444       -0.0000803242       -0.9436208431
 H          5.5431301909       -0.0000882731       -3.0191510230
 H          2.9064950300       -0.0000688194       -4.1249036599
 H          2.1430778699       -2.4135045657       -1.1442916179
 H          1.6964278695       -4.6108315699       -0.1450420498
 H          0.6925362087       -4.7515235398        2.1199277998
 H          0.1581816167       -2.6694219929        3.3380832989
 H          0.1582688324        2.6695912062        3.3380040282
 H          0.6926943067        4.7516391458        2.1197872688
 H          1.6965815809        4.6108467439       -0.1451779708
 H          2.1431536461        2.4134754163       -1.1443647215
 H         -1.7466974475       -2.3188951896       -0.0367481269
 H         -2.6997558622       -4.3776074822        0.8697432704
 H         -5.1331876804       -4.5281557689        1.3221642235
 H         -6.5742453989       -2.5677630568        0.8786457279
 H         -6.5743049768        2.5677139926        0.8786070255
 H         -5.1332918701        4.5281457169        1.3220972933
 H         -2.6998573801        4.3776469978        0.8696779904
 H         -1.7467505886        2.3189404407       -0.0367820424
