  126
 
 C        -10.7447401196        1.6068817776        0.3822480841
 C         -9.8839582466        0.3819921254        0.0195391208
 C        -10.7842853247       -0.8154063910       -0.3390437424
 C         -9.0308804378        0.7230417486       -1.1878705080
 C         -9.6494398796        1.0833605419       -2.3779344890
 C         -8.9306894222        1.3739716500       -3.5227378777
 C         -7.5504231993        1.2873592644       -3.4924968562
 C         -6.9102000551        0.9325694220       -2.3233727245
 C         -7.6333897021        0.6661240595       -1.1565938568
 N         -6.9602682825        0.3177569154        0.0076705410
 C         -5.5441157096        0.2596306867       -0.0027214035
 C         -4.7940910898        1.4331827250       -0.0369741550
 C         -3.4159337497        1.3733521880       -0.0463067733
 C         -2.7647356800        0.1399599662       -0.0229593443
 C         -1.3042543974        0.0761778745       -0.0310585112
 N         -0.6283546716        1.2225988511       -0.0288087402
 C          0.6982753910        1.1169177409       -0.0368131493
 C          1.4850302039        2.3491171009       -0.0380670874
 C          2.8771639558        2.2943820093       -0.1089872004
 C          3.6203403177        3.4563361837       -0.1057047266
 C          2.9836404168        4.6931666153       -0.0282577716
 N          3.7486485074        5.8863310360       -0.0169807703
 C          3.8713055858        6.6001420012        1.1684527110
 C          3.2681252133        6.1180344251        2.3342447797
 C          3.3630513844        6.8101467259        3.5235784322
 C          4.0732876965        7.9960571084        3.5752254615
 C          4.6974719632        8.4582571426        2.4313164278
 C          4.6191568948        7.7812958092        1.2212121182
 C          5.3607780788        8.3260696836        0.0149829297
 C          6.8647637239        8.3716898576        0.3448040557
 C          4.8389903088        9.7424753690       -0.2917883230
 C          5.1563876667        7.4583352753       -1.2126112476
 C          5.7568956314        7.8210418218       -2.4111830351
 C          5.5836393269        7.0901789865       -3.5720189250
 C          4.7717704503        5.9703566009       -3.5494139708
 C          4.1657787337        5.5855359003       -2.3715716153
 C          4.3644579127        6.3054773691       -1.1893752384
 C          1.5933508037        4.7518557320        0.0404367280
 C          0.8506586611        3.5894525115        0.0337009937
 N          1.3532295736       -0.0416327770       -0.0406747349
 C          0.5984183801       -1.1377018914       -0.0386470600
 C          1.2722594933       -2.4351159923       -0.0342953583
 C          0.5290102059       -3.6140187323       -0.0951742657
 C          1.1641805509       -4.8384208037       -0.0883167139
 C          2.5539724640       -4.9044976351       -0.0174306627
 N          3.2061961900       -6.1629368770       -0.0073791185
 C          3.7698726315       -6.6232812845        1.1758571753
 C          3.6538439469       -5.8601447508        2.3418631549
 C          4.2105679068       -6.2863128174        3.5297416074
 C          4.8861328231       -7.4923906930        3.5797638341
 C          4.9763128283       -8.2627107814        2.4351197473
 C          4.4255471739       -7.8580655339        1.2261265037
 C          4.5312703171       -8.7698314442        0.0180571433
 C          6.0202825515       -9.0139965281       -0.2916724138
 C          3.8295474262      -10.1012504060        0.3466314294
 C          3.8746319875       -8.1619253035       -1.2071500998
 C          3.8918066841       -8.8610987555       -2.4070296516
 C          3.3350887883       -8.3500416330       -3.5648177813
 C          2.7567432942       -7.0937382441       -3.5378985523
 C          2.7245957769       -6.3781449682       -2.3591775951
 C          3.2605538585       -6.9053389185       -1.1801343747
 C          3.2996185723       -3.7291928273        0.0441071424
 C          2.6637917079       -2.5051148083        0.0346989478
 N         -0.7323169067       -1.1254792762       -0.0377378581
 C         -3.5190690357       -1.0330329360        0.0109638339
 C         -4.8970247888       -0.9740380152        0.0220652361
 C         -7.6389284112        0.0094588629        1.1798406811
 C         -6.9175554054       -0.2765548796        2.3431672383
 C         -7.5622924187       -0.5951151716        3.5201935204
 C         -8.9446675675       -0.6253062189        3.5615324429
 C         -9.6603072737       -0.3129449169        2.4204696656
 C         -9.0370914998        0.0140011589        1.2232354858
 H        -11.3736106912        1.9000102140       -0.4536521447
 H        -11.3868720427        1.3921549957        1.2317300167
 H        -10.1026207628        2.4471688288        0.6410093272
 H        -11.4219263129       -1.0843941195        0.4984449147
 H        -11.4189980405       -0.5825061121       -1.1894001433
 H        -10.1706130916       -1.6777213634       -0.5947223153
 H        -10.7266281307        1.1378048958       -2.4194265459
 H         -9.4442526272        1.6537440513       -4.4302722451
 H         -6.9674696309        1.4915038214       -4.3786943770
 H         -5.8339668061        0.8535415529       -2.3151746638
 H         -5.3023468892        2.3859168187       -0.0554326205
 H         -2.8237928514        2.2744043044       -0.0680667637
 H          3.3582556379        1.3306442652       -0.1625902099
 H          4.6981938327        3.4187161430       -0.1614706631
 H          2.7237914345        5.1866064153        2.3085255895
 H          2.8838111556        6.4177472383        4.4085764855
 H          4.1516494201        8.5501565470        4.4984905696
 H          5.2652269842        9.3743692818        2.4898746763
 H          7.0527165992        8.9966609801        1.2133527794
 H          7.2277624511        7.3678174529        0.5591330066
 H          7.4323717714        8.7704023211       -0.4913213385
 H          5.3568586724       10.1704951655       -1.1454444065
 H          3.7749336272        9.7045724369       -0.5193580991
 H          4.9844744448       10.4017145800        0.5592950171
 H          6.3792588176        8.7022130219       -2.4463535997
 H          6.0681374122        7.3995907350       -4.4859050189
 H          4.6045182204        5.3948232954       -4.4481323577
 H          3.5239590252        4.7178477688       -2.3669873133
 H          1.1066719786        5.7141677050        0.1000195971
 H         -0.2261976747        3.6212552621        0.0824567166
 H         -0.5463720749       -3.5497974613       -0.1444502634
 H          0.5925404788       -5.7533829753       -0.1377229113
 H          3.1157051883       -4.9250267472        2.3169514930
 H          4.1104427545       -5.6756247100        4.4151591435
 H          5.3294481830       -7.8365243024        4.5020646934
 H          5.4906023284       -9.2099523875        2.4923155090
 H          6.1358890593       -9.6756762510       -1.1454337514
 H          6.5111098685       -8.0694217402       -0.5203790415
 H          6.5238764437       -9.4652895108        0.5585416641
 H          2.7790014746       -9.9214098137        0.5690671437
 H          3.8897053833      -10.7880877331       -0.4929907892
 H          4.2858222292      -10.5775789234        1.2098541177
 H          4.3541420810       -9.8356879792       -2.4455465652
 H          3.3631036478       -8.9227241120       -4.4795907858
 H          2.3321054485       -6.6651728269       -4.4339500895
 H          2.2837469582       -5.3931453813       -2.3516218218
 H          4.3765907534       -3.7879512786        0.0993357737
 H          3.2295884259       -1.5880207569        0.0783023205
 H         -3.0059426938       -1.9814547041        0.0253640475
 H         -5.4852426471       -1.8793312425        0.0503000671
 H         -5.8390155491       -0.2420356308        2.3252044156
 H         -6.9811900168       -0.8156914223        4.4036605911
 H         -9.4619377549       -0.8779741311        4.4749037010
 H        -10.7384425893       -0.3237540945        2.4704995791
