  44
 
 O          4.2963937965       -1.2282400628       -2.6083482533
 S          3.9016028675        0.0005742587       -1.9776161692
 O          4.2959727385        1.2298607290       -2.6076936546
 C          4.3319799605        0.0002038781       -0.2332013834
 C          5.5856180062        0.0002013174        0.3291324183
 C          5.6867849099       -0.0001012439        1.7152346942
 C          4.5424914470       -0.0003980886        2.4980851927
 C          3.2822639554       -0.0003942388        1.9211075472
 C          3.1705923178       -0.0000835582        0.5355019660
 C          1.9363174487       -0.0000130174       -0.2496392309
 C          0.6363815865       -0.0001468994        0.2398638078
 C         -0.4251511587       -0.0000088268       -0.6581414845
 N         -1.7568194775       -0.0000579965       -0.1539114514
 C         -2.3720728072        1.2375998127        0.0280910382
 C         -1.6841804264        2.4059112063       -0.3040415246
 C         -2.2556074278        3.6551560386       -0.1365803470
 C         -3.5376007832        3.7747917448        0.3643136046
 C         -4.2350518358        2.6282200635        0.7006012853
 C         -3.6635426340        1.3761923416        0.5422305745
 S         -4.6543772992       -0.0001428841        1.0509626621
 C         -3.6634936551       -1.3764150715        0.5421555923
 C         -4.2349650579       -2.6284722931        0.7004273831
 C         -3.5374910574       -3.7749944929        0.3640198419
 C         -2.2555206932       -3.6552800145       -0.1369137971
 C         -1.6841288383       -2.4060060402       -0.3042712563
 C         -2.3720339972       -1.2377450847        0.0280092575
 C         -0.2024034279        0.0002218796       -2.0324597458
 C          1.0952196465        0.0003647659       -2.5245534364
 C          2.1375996755        0.0002546181       -1.6279428698
 H          6.4608425002        0.0004306249       -0.3008528603
 H          6.6593192522       -0.0001163665        2.1827105935
 H          4.6328529314       -0.0006410120        3.5740003608
 H          2.4015334652       -0.0006242631        2.5442307216
 H          0.4327161243       -0.0003355249        1.2994621162
 H         -0.6823738075        2.3382839382       -0.6986436801
 H         -1.6875640080        4.5330537409       -0.4033907690
 H         -3.9927340828        4.7434504334        0.4961838255
 H         -5.2364516356        2.6881001122        1.0990178083
 H         -5.2363471013       -2.6884140558        1.0988826980
 H         -3.9925745952       -4.7436801619        0.4958706097
 H         -1.6874519520       -4.5331430961       -0.4037871397
 H         -0.6823445631       -2.3383078219       -0.6989223311
 H         -1.0469413731        0.0003192781       -2.7046043827
 H          1.2927420656        0.0005713333       -3.5845818324
