105
 xtb: 6.7.1 (edcfbbe)
C           -9.82511698036872        0.09455905517948        4.35242607561595
C           -8.89620291185666        0.29430865708749        3.19199574061872
C           -7.52375726137665        0.40710090772175        3.36159448606964
C           -6.67949560186021        0.57754188980352        2.28025127757394
C           -7.19090409864992        0.62993326772943        0.98505056064466
N           -6.32502613970730        0.77866880287081       -0.10111123368991
C           -6.70283911188263        1.44205698550344       -1.27065121338307
C           -6.15387011238598        1.05793903109327       -2.49475883213608
C           -6.49975316006406        1.71988893486306       -3.65504454733313
C           -7.40478612142672        2.77578300630105       -3.64134702363877
C           -7.78689893827851        3.47076114433879       -4.91358778454042
C           -7.94766895908361        3.15465035652102       -2.41986365647754
C           -7.60205935718920        2.50831011299952       -1.24920746619327
C           -5.02245859517373        0.24197956866715       -0.01240170387921
C           -4.85015687837555       -1.14087796665397        0.18135406043634
C           -5.94741813075638       -2.03835458359827        0.23606177036519
C           -5.76218732909576       -3.37070105628715        0.44715665947874
C           -4.46486526957888       -3.88786642907277        0.62960298500487
C           -3.38310818400637       -3.06534159619629        0.55274689756696
C           -3.52943593043548       -1.67585438763497        0.29841361989092
C           -2.41787623246481       -0.83149619340305        0.16708321993582
C           -1.05281398488038       -1.39376071419964        0.26117812479988
C           -0.25737523017581       -1.12996171680079        1.37498923695822
C            1.01826008762539       -1.65113769115004        1.45626965829472
C            1.52154201947177       -2.43708859606913        0.42583804957018
P            3.21631605317891       -3.06448715468370        0.66417411390297
O            3.38744678118735       -3.78427947071163        1.94129679821843
C            3.62028362295466       -4.08328316050729       -0.78886311115742
C            3.84821235610705       -3.53461207376033       -2.04533116109012
C            4.15162274410446       -4.36429724010631       -3.10971874859015
C            4.22839178457211       -5.73647425262668       -2.92382870743084
C            4.00499237227700       -6.28348946701558       -1.67041103268101
C            3.70306310955034       -5.45643695184168       -0.60259734886129
C            4.26422863572517       -1.58045810174179        0.54046792846027
C            5.44836341191779       -1.56786116387020        1.26595417160811
C            6.28533922879062       -0.47095712246947        1.21975271136160
C            5.94583453761697        0.62851032215203        0.43219848486826
N            6.78589235528333        1.74567321925897        0.38142646886375
C            8.14920359942016        1.72560578116556        0.14905040065068
C            8.98154624521961        0.65375939135585       -0.14076068741336
C           10.31939026678968        0.91761025049561       -0.36723832579173
C           10.82349992084455        2.21559569906191       -0.31834612079340
C            9.99562867407488        3.28878899376111       -0.05408287580282
C            8.64733839738100        3.04828746503719        0.17786600731742
C            7.52541210379946        3.90248210181408        0.45488274172126
C            7.39040134066878        5.27399282007386        0.62918371851287
C            6.14096630795150        5.78417766745675        0.92173013850838
C            5.03793073404282        4.94351067143588        1.05519143526726
C            5.14762787027341        3.57597227829346        0.88602482431802
C            6.39603737484492        3.05982599632963        0.56841810556891
C            4.75836413275046        0.61303269187342       -0.29912591735470
C            3.92130068521210       -0.48319025075394       -0.24033785170711
C            0.73419475167267       -2.71083882467206       -0.68269002639849
C           -0.54615954537489       -2.19241087514555       -0.76047182353774
C           -2.59123156384990        0.54255785125626       -0.05284627863924
C           -1.48395757387865        1.41665434728015       -0.21644988676424
C           -1.65740831036312        2.75661929017865       -0.38020898836049
C           -2.95361470224008        3.30746539827461       -0.37979120190714
C           -4.04324532774051        2.50015164444026       -0.25768722993935
C           -3.90844562501318        1.09467670242197       -0.11820020556134
C           -8.57058139158609        0.50317154529479        0.80686685654144
C           -9.40187878743385        0.34483530040005        1.89523394878365
H          -10.49880324288202        0.98390683499488        4.44015015012709
H           -9.25690144812694        0.02104813737500        5.28969965442842
H          -10.44380009349550       -0.78166238069366        4.22110236110961
H           -7.10487637350218        0.36188162718648        4.35519735455532
H           -5.61537522750117        0.66160234641968        2.43565706194602
H           -5.45244768747067        0.23560181202004       -2.52715849187205
H           -6.06260494618514        1.40563584399725       -4.59249329645936
H           -8.30815879262152        4.40160007218578       -4.70550774827531
H           -8.44378046382393        2.83443582287589       -5.50696791177184
H           -6.90353024385810        3.68751115955374       -5.51211200915796
H           -8.64506439409616        3.97858907312088       -2.37751210478696
H           -8.01879587990926        2.83700829947127       -0.30809923400065
H           -6.94503650220979       -1.65352849233860        0.10068416152496
H           -6.60918801412489       -4.04083656546431        0.47978462562092
H           -4.33479148055293       -4.94395119770808        0.82350350080582
H           -2.38695134825064       -3.46279806594137        0.68774191736167
H           -0.64851104471071       -0.51837393234732        2.17478536417936
H            1.64316311858912       -1.46192771743137        2.31972416624518
H            3.79213848240534       -2.46427341322807       -2.18336709736730
H            4.33126866452803       -3.93988067660699       -4.08739276156912
H            4.46681730527539       -6.37957004681433       -3.75843807794415
H            4.06826396110966       -7.35156739466726       -1.52513099530628
H            3.53365345474538       -5.85652579879720        0.38695706862225
H            5.68859308002902       -2.42286161408581        1.88240743870243
H            7.19303505107185       -0.44957546684003        1.80412716211499
H            8.59934929183969       -0.35361645696517       -0.19863242686871
H           10.98792615649848        0.09985025161343       -0.59117082016020
H           11.87541200525242        2.38169189574384       -0.49909165624443
H           10.38298714557612        4.29710733261646       -0.03168949460157
H            8.24824905282314        5.92395035160331        0.54319727062647
H            6.01364059738726        6.84820123544075        1.06049683143042
H            4.07547794536231        5.36916630422204        1.30140662161571
H            4.28944611670230        2.93335790483859        1.01274801779829
H            4.50465466843353        1.46004889101702       -0.91924893640248
H            2.99558203595349       -0.48759673398993       -0.79773465337238
H            1.12173160352808       -3.32759522787958       -1.48169690722331
H           -1.16190427231682       -2.40222864725721       -1.62327439120775
H           -0.49087521277808        0.99337047593271       -0.20814694465273
H           -0.80506513953219        3.40747393551265       -0.50267823634349
H           -3.07860136834996        4.37497661907875       -0.47936066784155
H           -5.03244016400697        2.93081112600930       -0.25943503837273
H           -8.98386931206077        0.51530199765998       -0.19318368997331
H          -10.46867489514059        0.24722465605957        1.73435264602554
