  103
 
 C          5.0978247630       -4.0632217265        2.2571232237
 C          4.4928217422       -3.9971872106        0.8421646454
 C          4.8433379720       -5.2719832821        0.0517313344
 C          2.9839093314       -3.8988282032        0.9655824020
 C          2.2862356363       -4.9078182819        1.6173849324
 C          0.9153444280       -4.8612722623        1.7906704013
 C          0.2112954544       -3.7693283035        1.3159929025
 C          0.8791434105       -2.7561225082        0.6598877717
 C          2.2612843580       -2.8143045949        0.4585798834
 N          2.9061679521       -1.7768052879       -0.2071859127
 C          2.1247775441       -0.7403116148       -0.7694434577
 C          2.1151233233        0.5265721369       -0.1943066486
 C          1.3274434195        1.5400529128       -0.7313714842
 N          1.3008401032        2.8197137453       -0.1257671567
 C          0.1871336089        3.1841073261        0.6214552035
 C         -0.8429122970        2.2614694862        0.8257954748
 C         -1.9602153324        2.5953569782        1.5625581633
 C         -2.0680814494        3.8583505972        2.1158414515
 C         -1.0390378322        4.7641336109        1.9349061340
 C          0.0989334556        4.4537652462        1.2015646555
 C          1.2058345382        5.4837337294        1.0714264750
 C          1.7303593035        5.8204884906        2.4799719025
 C          0.6328005473        6.7462389647        0.4003764549
 C          2.3601642171        4.9710751448        0.2303498842
 C          3.4553149313        5.7929119339       -0.0024859281
 C          4.5232322124        5.3921033455       -0.7841284924
 C          4.4991180850        4.1398652231       -1.3713078250
 C          3.4241780535        3.3032389545       -1.1548898002
 C          2.3582550836        3.6948932962       -0.3409165846
 C          0.5342400914        1.2799829671       -1.8456541199
 C          0.5480811218        0.0169341103       -2.4007437376
 S         -0.6106207398       -0.3451808335       -3.7289661655
 O         -0.2158404070       -1.5874017921       -4.3577183980
 O         -0.7252531782        0.8181877505       -4.5818681180
 C         -2.1239765277       -0.5784373888       -2.8131976033
 C         -3.0422457677        0.4635679982       -2.7383012816
 C         -4.1768833387        0.3441029179       -1.9617895097
 C         -4.3587661236       -0.8395634488       -1.2520693915
 C         -3.4222091795       -1.9056008972       -1.3428463681
 C         -2.2897004231       -1.7656273010       -2.1302966132
 C         -3.9345518802       -2.9677786954       -0.5249589740
 C         -3.4699791482       -4.2388351697       -0.2066643391
 C         -4.2207093299       -5.0175624543        0.6507363642
 C         -5.4126039284       -4.5411812802        1.1960876351
 C         -5.8952572464       -3.2827862685        0.8915886459
 C         -5.1548403143       -2.5012740576        0.0149353655
 N         -5.3935287507       -1.2157794643       -0.4352707894
 C         -6.5290795045       -0.4397597392       -0.1284432944
 C         -7.8016712610       -0.9648724417       -0.3271741388
 C         -8.9155774370       -0.2053328240       -0.0170915187
 C         -8.7683402010        1.0787472555        0.4817662905
 C         -7.5007979943        1.6037213048        0.6730791028
 C         -6.3807879206        0.8486901522        0.3738387087
 C          1.3294961392       -0.9950791655       -1.8850640886
 C          4.2843884474       -1.7692337098       -0.3903958566
 C          4.8828541065       -0.7283922180       -1.1052512092
 C          6.2491375110       -0.6824165807       -1.2878492875
 C          7.0456530967       -1.6860840480       -0.7667285596
 C          6.4528555639       -2.7328645749       -0.0851749909
 C          5.0800096692       -2.8026557716        0.1139690431
 H          4.7137706886       -4.9198279497        2.8036007870
 H          6.1799361462       -4.1460806115        2.2117670413
 H          4.8450787038       -3.1606768215        2.8109371121
 H          4.4486840760       -6.1553250252        0.5458615367
 H          4.4158864330       -5.2174808129       -0.9482593613
 H          5.9195372551       -5.3865805229       -0.0420044977
 H          2.8255952651       -5.7578919319        2.0062483063
 H          0.4049110199       -5.6645202212        2.3000706411
 H         -0.8570538307       -3.6994348078        1.4567179587
 H          0.3209198731       -1.9050384580        0.3017267747
 H          2.7221054864        0.7247628999        0.6769676865
 H         -0.7645315513        1.2700066601        0.4073029334
 H         -2.7378850905        1.8608312470        1.7101344411
 H         -2.9382088777        4.1343003942        2.6920400511
 H         -1.1284214297        5.7406793428        2.3855469208
 H          0.9319797689        6.2027975359        3.1096819283
 H          2.1385620215        4.9258920653        2.9471651799
 H          2.5148163324        6.5703980410        2.4312034062
 H          1.3954905140        7.5134878083        0.3025312344
 H         -0.1879675330        7.1559505536        0.9821164564
 H          0.2620678857        6.5024487943       -0.5938847343
 H          3.4803385089        6.7792103565        0.4350705514
 H          5.3597690590        6.0560377434       -0.9414098065
 H          5.3124129072        3.8123202591       -2.0019253955
 H          3.4023142817        2.3355325915       -1.6315655410
 H         -0.0866897748        2.0473970292       -2.2796018483
 H         -2.8478273267        1.3547040636       -3.3136334834
 H         -4.9013706282        1.1415353798       -1.9167956843
 H         -1.5594955144       -2.5519818795       -2.2326556063
 H         -2.5413167294       -4.6003479280       -0.6211299274
 H         -3.8796719691       -6.0083410716        0.9116218127
 H         -5.9702900547       -5.1703213152        1.8739538823
 H         -6.8121592089       -2.9179333037        1.3281295218
 H         -7.9108106159       -1.9593284161       -0.7332414490
 H         -9.9019341754       -0.6164027860       -0.1726079042
 H         -9.6399655229        1.6694378334        0.7200686834
 H         -7.3814619448        2.6035081054        1.0631723743
 H         -5.3915432300        1.2491317935        0.5349723188
 H          1.3148664776       -1.9673979561       -2.3519095940
 H          4.2677054288        0.0479964986       -1.5320447138
 H          6.6863952547        0.1360916932       -1.8403685959
 H          8.1167473008       -1.6618961171       -0.8992282572
 H          7.0845946112       -3.5187729320        0.2996160512
