  101
 
 C         -9.8495947155        4.5356374258       -2.2506230491
 C        -10.2443933109        3.2383896683       -2.5315921671
 C         -9.5563428517        2.1690889472       -1.9891133466
 C         -8.4574302700        2.3806533872       -1.1602434820
 C         -7.7244937898        1.2454533751       -0.5783392953
 C         -8.4106485166        0.1426477824       -0.0786257600
 C         -7.7254388846       -0.9350088652        0.4743831609
 C         -8.4592131991       -2.0968830387        0.9998187293
 C         -8.0010167536       -3.3901558930        0.7599095134
 C         -8.6938570812       -4.4832788777        1.2456821690
 C         -9.8516935351       -4.3024484558        1.9834829803
 C        -10.3137837069       -3.0207642109        2.2312990748
 C         -9.6254694038       -1.9264787125        1.7415558903
 C         -6.3370339494       -0.9013322727        0.5219647593
 C         -5.6282918671        0.1936637922        0.0295727153
 C         -4.1655838526        0.2209393107        0.0873932171
 C         -3.4112389701       -0.8019132233       -0.5656136520
 C         -4.0359510012       -1.7910809296       -1.3303728602
 C         -3.3023663540       -2.7615156835       -2.0076939013
 C         -1.9262834078       -2.7280303088       -1.9689366050
 C         -1.2766875161       -1.7281757836       -1.2476984869
 C         -1.9863552055       -0.7746167222       -0.5145832414
 C         -1.3203071283        0.2752234888        0.1993432089
 C          0.1329766928        0.3065664579        0.2437545417
 C          0.8490390385        1.4419217365       -0.1610688350
 C          2.2238132200        1.4486061470       -0.1603790459
 C          2.9459063076        0.3229236006        0.2502208420
 C          4.3915018239        0.3811007928        0.2009476684
 N          5.0764060246        1.4805837097        0.4088822404
 C          6.3825502884        1.1404796517        0.2845860992
 C          7.5224164578        1.9781822539        0.4518986365
 C          7.4265065809        3.3213998469        0.7964783763
 C          8.5723475443        4.0804946150        0.9635407201
 C          9.8173155466        3.5111596456        0.7857438125
 C          9.9500746227        2.1648950212        0.4323693456
 C         11.2287997961        1.5695510345        0.2319699465
 C         11.3434903178        0.2742550899       -0.1372008067
 C         10.1936775996       -0.5458037830       -0.3328817240
 C         10.3195440837       -1.8757235699       -0.7441274681
 C          9.2008789640       -2.6524311799       -0.9577971947
 C          7.9341892628       -2.1383995248       -0.7387418692
 C          7.7612850541       -0.8275344544       -0.2966274484
 C          8.9060825596        0.0033877953       -0.1152747037
 C          8.7887214251        1.3716520489        0.2608825908
 C          6.5026315254       -0.2162941505       -0.0304702229
 N          5.2135347244       -0.6941768111       -0.0696336341
 C          4.7663097345       -1.9987588147       -0.3554981630
 C          3.9714170468       -2.2215963108       -1.4738652597
 C          3.4935548170       -3.4935815408       -1.7317191447
 C          3.8076441500       -4.5418027805       -0.8828064936
 C          4.6029376429       -4.3188047239        0.2298766048
 C          5.0811898456       -3.0500207020        0.5003945160
 C          2.2394042907       -0.7928731406        0.7069581325
 C          0.8634725349       -0.8013711030        0.6924429058
 C         -2.0801573484        1.2935142768        0.8620893572
 C         -1.4652241885        2.2654481694        1.6539532405
 C         -2.2059425079        3.2373345977        2.3238679313
 C         -3.5810416138        3.2231353464        2.2498886813
 C         -4.2233581247        2.2315403996        1.5128744416
 C         -3.5043751454        1.2687513153        0.7991634231
 C         -6.3362490369        1.2626667592       -0.5179502060
 C         -8.0663672971        3.6893585598       -0.8874171693
 C         -8.7591698696        4.7573148802       -1.4263196383
 H        -10.3892977930        5.3704872059       -2.6728077564
 H        -11.0915717937        3.0594427084       -3.1778827952
 H         -9.8592156817        1.1590504977       -2.2249441431
 H         -9.4896331457        0.1228876277       -0.1204355285
 H         -7.1059137854       -3.5387105971        0.1730666926
 H         -8.3302766604       -5.4811095280        1.0467364019
 H        -10.3914956245       -5.1569112179        2.3642862512
 H        -11.2139722130       -2.8735622887        2.8104284297
 H         -9.9819981637       -0.9284112726        1.9518593233
 H         -5.7958007732       -1.7132326849        0.9858817987
 H         -5.1118231482       -1.7944687714       -1.4148453628
 H         -3.8187935722       -3.5215509313       -2.5751134355
 H         -1.3427670913       -3.4604180325       -2.5069086015
 H         -0.1986583667       -1.6864308387       -1.2743019568
 H          0.3064730857        2.3034740880       -0.5222724740
 H          2.7728515861        2.3159355636       -0.4924560320
 H          6.4450883459        3.7478677735        0.9327713381
 H          8.4914245561        5.1232262942        1.2345424559
 H         10.7103299045        4.1062495501        0.9153791225
 H         12.1060979129        2.1844826996        0.3756932956
 H         12.3149908940       -0.1717395214       -0.2978532641
 H         11.3065782908       -2.2845611908       -0.9057684919
 H          9.3070541033       -3.6722179620       -1.2985400741
 H          7.0753427178       -2.7628699314       -0.9265725109
 H          3.7305777419       -1.3964536211       -2.1276271792
 H          2.8752053026       -3.6657546734       -2.5997319928
 H          3.4325458169       -5.5331793526       -1.0868148867
 H          4.8477777831       -5.1343343226        0.8937229365
 H          5.6967944201       -2.8630586796        1.3683680892
 H          2.7663122971       -1.6482905027        1.1016996917
 H          0.3310608622       -1.6620780023        1.0709092055
 H         -0.3924810992        2.2584786577        1.7688726707
 H         -1.6939558566        3.9854691818        2.9103554065
 H         -4.1681070548        3.9617514596        2.7753105034
 H         -5.3020581130        2.1971834125        1.5098081207
 H         -5.7907276385        2.0946815927       -0.9392035708
 H         -7.2250829035        3.8695495227       -0.2336669207
 H         -8.4484410874        5.7673421071       -1.2012573437
