  66
 
 C         -9.6129776330       -2.3754556391        1.2764510800
 C         -9.3294709818       -1.5447389673        0.0147007661
 C         -9.6149542586       -2.3916753172       -1.2357458263
 C        -10.2822334897       -0.3462816737        0.0077342213
 C         -7.8706778648       -1.1376732618        0.0113862183
 C         -6.8749695697       -2.1325282062        0.0168904851
 C         -5.5435805294       -1.8244596789        0.0153056844
 C         -5.1253955725       -0.4696770883        0.0082050554
 C         -3.7642069239       -0.1525704621        0.0073807162
 N         -2.7363118111       -1.0229417816        0.0110910244
 N         -1.6369241353       -0.3674244733        0.0084157792
 C         -1.9232736460        0.9575113557        0.0033366609
 C         -1.0090967568        2.0073779792       -0.0004545986
 C         -1.4454729355        3.3715303556       -0.0039115634
 C         -0.5235787238        4.3876243662       -0.0079259760
 C          0.8401433108        4.1165033280       -0.0090780617
 C          1.2840041258        2.7682348568       -0.0059074762
 C          2.6985408403        2.5091045554       -0.0081781234
 N          3.6582028854        3.3958147068       -0.0140235071
 N          4.8141791072        2.7347170604       -0.0146727713
 C          4.5368108162        1.4590658641       -0.0092613726
 C          5.4767376956        0.3689308711       -0.0075335467
 C          5.0430871358       -0.9547043582       -0.0008018997
 C          5.9610247380       -1.9868864499        0.0013551020
 C          7.3303612138       -1.7380452134       -0.0031103426
 C          8.3701231617       -2.8457482541       -0.0004861259
 C          9.2378400331       -2.7170782603       -1.2608563364
 C          9.2467330955       -2.7031328985        1.2522128070
 C          7.7465099461       -4.2440366755        0.0096392212
 C          7.7485188218       -0.4053789949       -0.0103495959
 C          6.8468638506        0.6352040245       -0.0124885559
 O          3.1989581777        1.2499762940       -0.0049125050
 C          0.3779530659        1.7336619890       -0.0013526361
 O         -3.2898711759        1.1418172252        0.0023823412
 C         -6.1219768604        0.5365098272        0.0021744822
 C         -7.4506690917        0.1998146546        0.0036792031
 H         -9.0100618626       -3.2785337894        1.3028366478
 H         -9.3930175298       -1.7917906778        2.1678105428
 H        -10.6612590215       -2.6645583890        1.3025401792
 H        -10.6630734385       -2.6818557326       -1.2558583395
 H         -9.3974083208       -1.8192451123       -2.1349400751
 H         -9.0114468475       -3.2945974364       -1.2519797847
 H        -10.1403669154        0.2729329465        0.8904140868
 H        -11.3103894491       -0.7021124846        0.0105356067
 H        -10.1413412084        0.2617504305       -0.8828333627
 H         -7.1633856133       -3.1725461295        0.0225674167
 H         -4.7860662295       -2.5916783989        0.0195749660
 H         -2.5049553441        3.5724998766       -0.0030502763
 H         -0.8581619840        5.4144617777       -0.0101853782
 H          1.5770398088        4.9014337506       -0.0123659472
 H          3.9849287153       -1.1699932678        0.0028193326
 H          5.5877384121       -2.9976520118        0.0067028552
 H          9.9787819896       -3.5131236675       -1.2858355979
 H          8.6192980712       -2.7931753148       -2.1526758994
 H          9.7603671495       -1.7651797639       -1.2889620579
 H          8.6344605642       -2.7688623558        2.1491571709
 H          9.7698241064       -1.7512540039        1.2658965749
 H          9.9875884012       -3.4991291698        1.2810179295
 H          7.1392655232       -4.3963459251        0.8988551915
 H          7.1345020898       -4.4071414750       -0.8743711172
 H          8.5368675822       -4.9918028801        0.0120349827
 H          8.8021444094       -0.1719719209       -0.0143551756
 H          7.1756009903        1.6622227866       -0.0179334205
 H          0.6998535923        0.7043128855        0.0011727920
 H         -5.8153550910        1.5712656018       -0.0036942658
 H         -8.1785213159        0.9946446255       -0.0011992922
