46

O      2.505687    0.732200    2.175666
C      2.888596    0.013784    1.272979
C      4.064461    0.274769    0.421845
C      4.893570    1.383609    0.484788
C      5.960031    1.458793   -0.418129
C      6.180837    0.436904   -1.361262
C      5.340794   -0.677401   -1.416635
C      4.296555   -0.726518   -0.511775
S      3.114021   -1.990295   -0.362143
O      2.288163   -2.008487   -1.545753
O      3.750192   -3.162275    0.188840
N      2.275612   -1.191831    0.861610
C      1.148562   -1.870702    1.502694
C     -0.138579   -1.060677    1.388687
C     -0.567898   -0.843253   -0.061112
N     -1.857109   -0.169613   -0.148507
C     -2.024447    1.201774   -0.101652
C     -1.093742    2.243914    0.052479
C     -1.569234    3.558416    0.060358
C     -2.926152    3.828753   -0.079964
C     -3.845177    2.785217   -0.227762
C     -3.391528    1.448546   -0.236574
C     -4.050469    0.184726   -0.353170
C     -5.401374   -0.196523   -0.503108
C     -5.735362   -1.551846   -0.582413
C     -4.745817   -2.526272   -0.513646
C     -3.400465   -2.175682   -0.365757
C     -3.073140   -0.810696   -0.289451
H      4.720387    2.171959    1.212326
H      6.628345    2.318253   -0.393117
H      7.017182    0.518699   -2.053948
H      5.503212   -1.470931   -2.139626
H      1.392073   -2.030927    2.559288
H      0.993129   -2.863230    1.064123
H     -0.024002   -0.093572    1.892210
H     -0.931425   -1.592709    1.929746
H     -0.643837   -1.794996   -0.597284
H      0.157044   -0.230988   -0.608484
H     -0.033023    2.047332    0.170657
H     -0.866903    4.379892    0.180787
H     -3.277883    4.857137   -0.070958
H     -4.903731    3.003701   -0.331628
H     -6.179553    0.559025   -0.555393
H     -6.776183   -1.842923   -0.698085
H     -5.020748   -3.576606   -0.576959
H     -2.640672   -2.948453   -0.314789
