  167
 
 C         -5.6766629276       -8.0252778668        0.5779313446
 C         -5.5582658131       -6.9171585092       -0.1488521493
 C         -4.8625227093       -5.6990757266        0.2307191978
 C         -4.3881339327       -5.4611790622        1.5229962303
 C         -3.7035603600       -4.3027398242        1.8234095384
 C         -3.4562120551       -3.3496184242        0.8423659272
 C         -2.6380423278       -2.1214485625        1.1462558393
 O         -2.9737142371       -1.0083208662        0.3416815636
 C         -4.1847272183       -0.4208923273        0.5203149890
 C         -5.0999412494       -0.7583594308        1.5103335784
 C         -6.3040674857       -0.0753077545        1.6347120829
 C         -6.6597621577        0.9494221187        0.7811225612
 C         -5.7671559998        1.2771617560       -0.2314643484
 C         -4.5301633112        0.6080943196       -0.3637368608
 C         -3.8762415009        1.1809973631       -1.5046177117
 C         -2.6788494695        0.9238843467       -2.1564109367
 C         -2.3548676949        1.6756836162       -3.2682723357
 C         -3.2111191364        2.6676225017       -3.7397847682
 C         -4.4191741499        2.9263821579       -3.1227298761
 C         -4.7516331537        2.1758684342       -2.0027363920
 N         -5.8873588102        2.2128119280       -1.2312411417
 C         -7.0730799623        2.9508898669       -1.5749606494
 C         -7.0023272448        4.4325339548       -1.1901855317
 C         -7.2102946635        4.6699212534        0.3039289504
 C         -7.2439601313        6.1620678642        0.6643912492
 C         -5.9119346027        6.7373320240        1.1500226414
 C         -4.7500501768        6.5611343151        0.1747016503
 O         -4.2419062464        5.2535903619        0.3530016672
 C         -3.1221992596        4.8719610462       -0.3063295705
 C         -2.5761879703        5.5236951220       -1.4107191350
 C         -1.4352299294        5.0362020891       -2.0370164131
 C         -0.7709927223        3.9133127110       -1.5794242155
 C         -1.2804392239        3.2848801968       -0.4510525919
 C         -2.4719183553        3.7282855821        0.1645113057
 C         -2.7331670667        2.8355172503        1.2538343784
 C         -3.7302317981        2.7511383340        2.2152427851
 C         -3.6398296929        1.7625931937        3.1758065141
 C         -2.5631160563        0.8748582943        3.2003156046
 C         -1.5654143372        0.9291026498        2.2471374755
 C         -1.6675908804        1.8998551264        1.2588122175
 N         -0.8070624106        2.1826928862        0.2264550187
 C          0.3492899626        1.4513517358       -0.0679169224
 C          0.2720036222        0.0873402763       -0.2181323522
 C          1.4046009821       -0.6708595004       -0.5171550504
 C          2.6449448566       -0.0393412122       -0.6100273329
 C          2.7733000118        1.3159844692       -0.4113420040
 N          4.0464866461        1.8944830792       -0.4716002519
 C          4.6789486659        2.6147824550        0.5189743574
 C          4.1822987595        3.1074109201        1.7174443874
 C          5.0582388077        3.7723324786        2.5554597400
 C          6.4001046010        3.9450887442        2.2182314607
 C          6.9069384857        3.4537790652        1.0298569453
 C          6.0461867397        2.7794131623        0.1738452992
 C          6.2286354930        2.1322022294       -1.0904503009
 C          7.3470962803        1.8855837273       -1.8932704019
 O          8.5688044152        2.3162690981       -1.4566054812
 C          9.6629601947        1.4252895497       -1.5634475177
 C          9.8963184017        0.6477583296       -0.2572269266
 C          8.6448057797       -0.0388467923        0.2965954443
 C          8.0984875166       -1.1593230049       -0.5921089032
 C          6.6281246195       -1.4663340425       -0.3111491446
 C          6.3859515556       -2.0718135006        1.0753489250
 N          4.9846022082       -2.2760448385        1.3254780165
 C          4.1535900158       -1.4229153414        2.0118698477
 C          4.4344243961       -0.2170855780        2.6402034533
 C          3.4032503788        0.4212031550        3.3010620127
 C          2.1123229796       -0.1033866415        3.3218153968
 C          1.8211048462       -1.2964742500        2.6918684318
 C          2.8460805133       -1.9669399205        2.0393353708
 C          2.9106978320       -3.2038826739        1.3183639729
 C          1.9626986440       -4.1928215495        1.0310760162
 O          0.7011986313       -3.9917517297        1.5025245759
 C         -0.1967515616       -5.0790056249        1.5050770913
 C         -0.8197802513       -5.4082224170        0.1712638492
 C         -0.7469105294       -4.5393926421       -0.9081485707
 C         -1.3687828739       -4.8528445285       -2.0991289691
 C         -2.0990701763       -6.0334961908       -2.2453086663
 C         -2.7766992242       -6.2985368528       -3.5046657457
 C         -3.6672342522       -7.2586409062       -3.7360307987
 C         -2.1515931683       -6.9090103330       -1.1574299822
 C         -1.5209464471       -6.6004465456        0.0273398559
 C          2.3773936768       -5.2992009526        0.3009322971
 C          3.6975270489       -5.4193708647       -0.1235162636
 C          4.6517711615       -4.4624160652        0.1587697059
 C          4.2469990066       -3.3497619594        0.8867369570
 C          7.1419052536        1.2350524400       -3.1070700859
 C          5.8759377470        0.8055616961       -3.4941645317
 C          4.7713727178        0.9713501873       -2.6772228157
 C          4.9628185021        1.6211619668       -1.4662664530
 C          1.6160112088        2.1333275631       -0.1579449563
 C          1.7159569958        3.5004040270       -0.0032492972
 N          1.8024495412        4.6525140495        0.1246157887
 C         -3.9458733077       -3.5652108168       -0.4393820490
 C         -4.6461411961       -4.7139913668       -0.7361904801
 H         -6.2053029504       -8.8861538276        0.2056752658
 H         -5.2523908022       -8.1233929775        1.5623781486
 H         -5.9925862817       -6.8937239245       -1.1413454195
 H         -4.5650874786       -6.1862040994        2.3024497313
 H         -3.3536054654       -4.1330088671        2.8335010326
 H         -1.5862275402       -2.3248368735        0.9110248564
 H         -2.7011979408       -1.8606326097        2.2106708984
 H         -4.8945215725       -1.5631794962        2.1964741715
 H         -6.9809688372       -0.3641373272        2.4249996812
 H         -7.5990572049        1.4653284906        0.9022081636
 H         -2.0237958138        0.1452669190       -1.8033286500
 H         -1.4247787205        1.4920732343       -3.7852368372
 H         -2.9279891666        3.2409324171       -4.6100508266
 H         -5.0803025860        3.6871864177       -3.5095317728
 H         -7.9293070957        2.4791180588       -1.0871679888
 H         -7.2162280753        2.8699024654       -2.6589959340
 H         -6.0318072251        4.8167237451       -1.4991786138
 H         -7.7758655575        4.9663109932       -1.7484290921
 H         -6.4182211585        4.1721549066        0.8622739992
 H         -8.1618420357        4.2155907687        0.5918530769
 H         -7.5857087230        6.7334260070       -0.2022024961
 H         -7.9726405184        6.3213961589        1.4620193097
 H         -6.0441846024        7.8036786763        1.3421371420
 H         -5.6272661493        6.2583000738        2.0883418501
 H         -3.9583391863        7.2905497726        0.3950461913
 H         -5.0896684873        6.7235793077       -0.8564283390
 H         -3.0407593557        6.4161515104       -1.8000428762
 H         -1.0555777726        5.5580461004       -2.9016725075
 H          0.1129809871        3.5517541877       -2.0774141524
 H         -4.5487392731        3.4526276484        2.2113888643
 H         -4.4070453231        1.6794971431        3.9312822764
 H         -2.5082716647        0.1365333930        3.9875558871
 H         -0.7265895169        0.2508258262        2.2697390678
 H         -0.6917981919       -0.3886682058       -0.1313512579
 H          1.3335839333       -1.7363489151       -0.6541992475
 H          3.5283586334       -0.6300262977       -0.8028707179
 H          3.1468742583        2.9826851263        1.9865496115
 H          4.6934688844        4.1706740709        3.4903446601
 H          7.0509608580        4.4745047437        2.8986071882
 H          7.9425267582        3.5867047086        0.7584944343
 H          9.5269249198        0.7287651338       -2.3951063965
 H         10.5420990215        2.0421267633       -1.7750431244
 H         10.6820377966       -0.0880609298       -0.4406932879
 H         10.2566609283        1.3487376445        0.4978566214
 H          7.8735118118        0.7188175324        0.4401376903
 H          8.8927942029       -0.4429801623        1.2804976791
 H          8.6989989537       -2.0626118850       -0.4603561370
 H          8.1720546980       -0.8647012379       -1.6394429283
 H          6.0519862931       -0.5429506558       -0.3956586155
 H          6.2521432548       -2.1601968883       -1.0669071184
 H          6.9034550340       -3.0330995579        1.1585364097
 H          6.7752500548       -1.4059217966        1.8475688683
 H          5.4220101591        0.2196194615        2.6221970165
 H          3.6055938928        1.3472452264        3.8169071403
 H          1.3358301030        0.4361255808        3.8446658480
 H          0.8284512224       -1.7188782989        2.7049091352
 H         -0.9933391976       -4.7745363707        2.1951765696
 H          0.2898269749       -5.9716149986        1.9237464495
 H         -0.1982939802       -3.6137224776       -0.8144317594
 H         -1.3040691605       -4.1632903239       -2.9290559730
 H         -2.5258052789       -5.6130585795       -4.3057459297
 H         -3.9766477331       -7.9577006045       -2.9781235442
 H         -4.1284727923       -7.3740941833       -4.7021045016
 H         -2.6902044458       -7.8397975010       -1.2395509582
 H         -1.5753215221       -7.2874012365        0.8602796306
 H          1.6752682768       -6.0750442037        0.0392778169
 H          3.9772053486       -6.2940615142       -0.6917072135
 H          5.6700543535       -4.5830910540       -0.1757973951
 H          7.9721786123        1.0730682190       -3.7787024494
 H          5.7597901379        0.3239377838       -4.4530285460
 H          3.7974959859        0.6158998754       -2.9743933993
 H         -3.7718004585       -2.8228585717       -1.2044277770
 H         -5.0154450830       -4.8687681391       -1.7399382545
