  60
 
 C         -7.6630438812       -2.8250875870       -0.4597919621
 C         -6.4635598255       -2.9171208254       -1.1467593536
 C         -5.4961670370       -1.9421374124       -0.9990040536
 C         -5.7161686648       -0.8598408898       -0.1481079277
 N         -4.7393863709        0.1352006064        0.0047971512
 C         -5.1403055758        1.4759242226        0.1043422905
 C         -6.1953254529        1.9528169999       -0.6719053602
 C         -6.5975846212        3.2699829786       -0.5630784030
 C         -5.9533569692        4.1300463760        0.3110505585
 C         -4.9029900263        3.6606831805        1.0827285008
 C         -4.4987118521        2.3431703376        0.9873734651
 C         -3.3934466688       -0.2039573376        0.0615799556
 C         -2.9873927473       -1.4152863170        0.6303931811
 C         -1.6550643205       -1.7577096030        0.6821874146
 C         -0.6761327501       -0.9012941371        0.1724924146
 C          0.7449623686       -1.2205891365        0.2051219177
 C          1.2352336048       -2.5388053511        0.4139479618
 N          2.5045097407       -2.8252084168        0.4655890496
 C          3.3773912765       -1.8144879767        0.2995220749
 N          4.6936288429       -2.1082295674        0.3709003411
 C          5.4931690969       -1.0977700334        0.1746644775
 C          5.0131232710        0.2445950224       -0.1031127297
 N          3.7488201679        0.5471255665       -0.1693721165
 C          2.9009924384       -0.4903328871        0.0406668486
 N          1.5924278299       -0.2252949077        0.0056012233
 C          6.1714075952        1.1096046196       -0.2721886170
 C          6.3646998039        2.4406924404       -0.5437704502
 C          7.6865221038        2.9166515824       -0.6310413967
 C          8.7836551364        2.1068072842       -0.4561851079
 C          8.6201303017        0.7312692105       -0.1751984417
 C          9.6226510129       -0.2433529141        0.0328044668
 C          9.2799946947       -1.5480698134        0.2980896281
 C          7.9445809966       -1.9859819441        0.3774772942
 C          6.9469429282       -1.0644516629        0.1803408414
 C          7.3011849276        0.2778126603       -0.0925200193
 C         -1.0849855696        0.3162314771       -0.3828502664
 C         -2.4142749521        0.6591483941       -0.4432775785
 C         -6.9240780731       -0.7718467956        0.5420799417
 C         -7.8885172242       -1.7478692378        0.3814318436
 H         -8.4175967804       -3.5873735139       -0.5802757040
 H         -6.2825482610       -3.7498990215       -1.8101644826
 H         -4.5660716205       -2.0086569437       -1.5442904504
 H         -6.6931696893        1.2849874227       -1.3596716910
 H         -7.4149466405        3.6285923272       -1.1711046179
 H         -6.2684087129        5.1592729111        0.3910679655
 H         -4.3992713752        4.3227869591        1.7712952390
 H         -3.6871201178        1.9759361089        1.5981621722
 H         -3.7306305954       -2.0802521920        1.0452169471
 H         -1.3768034789       -2.6871840161        1.1546922709
 H          0.5636290984       -3.3800787252        0.5191334631
 H          5.5307775251        3.1097462561       -0.6874237941
 H          7.8382123020        3.9650239116       -0.8448605826
 H          9.7798957281        2.5183048178       -0.5326563762
 H         10.6626797418        0.0453303666       -0.0183841281
 H         10.0649497229       -2.2743833974        0.4533056896
 H          7.7183124087       -3.0195160674        0.5878234777
 H         -0.3271947303        0.9758389009       -0.7748986502
 H         -2.7131203520        1.5950562820       -0.8916840744
 H         -7.0976643511        0.0636774832        1.2043258044
 H         -8.8194433776       -1.6702500753        0.9233734635
