  101
 
 C          0.5753874775       -1.4426361437       -0.0741823518
 C          1.2555318864       -0.3242093295        0.2468201373
 C          2.6932971639       -0.1265512245        0.1103388500
 C          3.2243553934        1.1652364333        0.1295512378
 C          4.5859002581        1.3643168026        0.0099180708
 C          5.4464670574        0.2885628535       -0.1140549361
 C          4.9309797462       -1.0057361740       -0.1341306061
 N          5.7896125597       -2.1060840373       -0.2542116558
 C          6.7800334983       -2.2597570454       -1.2050695659
 C          7.1269933285       -1.4308914334       -2.2622219142
 C          8.1524506303       -1.8404243661       -3.0928491751
 C          8.8159364768       -3.0483620705       -2.8892335542
 C          8.4584605604       -3.8886292849       -1.8540337844
 C          7.4307147047       -3.4987151631       -1.0054684925
 C          6.7988976630       -4.1142601625        0.1278941584
 C          7.0061236381       -5.3092657630        0.8041339250
 C          6.2154886489       -5.5958327820        1.8988718683
 C          5.2391553995       -4.7009403800        2.3306166300
 C          5.0147181079       -3.5056373953        1.6746450368
 C          5.7893386517       -3.2231459220        0.5585539703
 C          3.5620139140       -1.2081502958       -0.0265323263
 N          0.5378056824        0.7926486354        0.7725165760
 N         -0.8150891261        0.7962543173        0.3358018552
 C         -1.4103484409        2.0135021603        0.0825709169
 C         -2.7477328099        2.0678910489       -0.3217457516
 C         -3.3448937377        3.2911820177       -0.5416270512
 C         -2.6381650863        4.4707350558       -0.3736836339
 C         -1.3011090888        4.4180458661        0.0101876959
 N         -0.5654019412        5.6000358088        0.1775315430
 C          0.2042609196        5.9224390877        1.2770042198
 C          0.4006278911        5.2199063548        2.4577121112
 C          1.2127485752        5.7877004978        3.4204234267
 C          1.8129644036        7.0298727377        3.2261180478
 C          1.6013076916        7.7455717338        2.0649216987
 C          0.7892309087        7.1951535292        1.0820451628
 C          0.3475107139        7.6537470181       -0.2048337951
 C          0.5916570077        8.8036673107       -0.9442322940
 C          0.0124388137        8.9233474240       -2.1913510420
 C         -0.7882239909        7.9074513733       -2.7093087894
 C         -1.0461173460        6.7547658015       -1.9927720629
 C         -0.4877893598        6.6396456818       -0.7275434131
 C         -0.6877066899        3.1943350327        0.2397151442
 N         -1.5027618164       -0.3186143810        0.1720405669
 C         -0.8710770659       -1.4460545190        0.0413915256
 C         -1.6869078145       -2.6466390494       -0.1034657106
 C         -1.1494344137       -3.9009557950       -0.3933403641
 C         -1.9812295352       -4.9943020987       -0.5530159238
 C         -3.3533061641       -4.8664703329       -0.4413645662
 C         -3.9022274126       -3.6233662577       -0.1300948454
 N         -5.2885509344       -3.4630514942       -0.0148451538
 C         -6.0279189508       -2.4526999129       -0.6004703345
 C         -5.6187099206       -1.4285535251       -1.4432026038
 C         -6.5805764909       -0.5535618442       -1.9102688545
 C         -7.9225485430       -0.6931299658       -1.5631204362
 C         -8.3400305016       -1.7260874101       -0.7483410728
 C         -7.3909963579       -2.6166472500       -0.2635750329
 C         -7.4681538779       -3.7817818762        0.5723026221
 C         -8.5158633859       -4.4246667929        1.2180533974
 C         -8.2366096549       -5.5361876519        1.9874809307
 C         -6.9297866000       -5.9968113999        2.1309296303
 C         -5.8710406456       -5.3742054130        1.4980113474
 C         -6.1484095487       -4.2731502189        0.7002299172
 C         -3.0685129604       -2.5319346893        0.0542646691
 H          1.0676727238       -2.2820890913       -0.5298069550
 H          2.5572608827        2.0068271381        0.2231077769
 H          4.9836890819        2.3680331103        0.0248633899
 H          6.5131352607        0.4397585983       -0.1770162201
 H          6.6068931266       -0.5016781877       -2.4401757213
 H          8.4434059102       -1.2111810966       -3.9210451209
 H          9.6141748915       -3.3311925818       -3.5591543307
 H          8.9611943603       -4.8323665700       -1.7055050133
 H          7.7742744590       -5.9945868119        0.4791197086
 H          6.3585073247       -6.5207252248        2.4374917557
 H          4.6466236537       -4.9445800032        3.2002555548
 H          4.2689101627       -2.8105382565        2.0304674364
 H          3.1816512250       -2.2173833058       -0.0467826994
 H          0.5808155101        0.8168715429        1.7954218331
 H         -3.2965826994        1.1500104953       -0.4496159277
 H         -4.3810178329        3.3291887611       -0.8425819792
 H         -3.1162842332        5.4260133650       -0.5229592558
 H         -0.0772743110        4.2668083068        2.6271459213
 H          1.3828013668        5.2587019943        4.3468750588
 H          2.4432288956        7.4385024910        4.0020127965
 H          2.0519191742        8.7160331562        1.9209000676
 H          1.2252455724        9.5833252628       -0.5487837969
 H          0.1866361183        9.8107308910       -2.7816033266
 H         -1.2143911570        8.0223195197       -3.6951620502
 H         -1.6532889386        5.9658090167       -2.4100687497
 H          0.3534645364        3.1575008396        0.5145457515
 H         -0.0849346471       -4.0353703298       -0.5021404155
 H         -1.5538199289       -5.9588838904       -0.7845606363
 H         -3.9995748096       -5.7146196866       -0.6068866190
 H         -4.5855303745       -1.3218115292       -1.7370331653
 H         -6.2848338178        0.2547375692       -2.5630230693
 H         -8.6436230243        0.0131446995       -1.9471672788
 H         -9.3820941429       -1.8457555648       -0.4927072291
 H         -9.5259008589       -4.0558891953        1.1209849495
 H         -9.0371084080       -6.0528722973        2.4957965196
 H         -6.7389485145       -6.8580413351        2.7543400227
 H         -4.8602377957       -5.7280998325        1.6340014166
 H         -3.4812339017       -1.5745586986        0.3280428048
