  103
 
 C         -0.3405466536        6.1662197473        6.5761394411
 C          0.9677007177        6.5019344400        6.9581177078
 N          2.0045327045        5.9456147580        6.3375472084
 C          1.8505833026        5.1422628288        5.3329378326
 C          0.5759360608        4.7865393419        4.7846535373
 C          0.4492422554        3.8806563126        3.7070174123
 C          1.5302174588        3.6002196635        2.8160841421
 C          1.3761120584        2.7795743267        1.7393179275
 C          0.1499456250        2.1369314389        1.4525252854
 Si        -0.0048380052        1.0068819233       -0.0300398101
 C         -0.1723745777        1.9737231471       -1.6557471573
 C          0.3336059257        3.2653712905       -1.7863001014
 C          0.1980645270        3.9750501053       -2.9616270469
 C         -0.4541250613        3.4137545747       -4.0617796177
 C         -0.5989703813        4.1585448038       -5.3130803234
 C         -0.5052768317        3.5352915931       -6.5617906834
 C         -0.6518271513        4.2880298539       -7.7120173510
 C         -0.8874291723        5.6499313630       -7.5877335908
 N         -0.9849815749        6.2555263452       -6.4127845511
 C         -0.8467947775        5.5350628169       -5.3181271385
 C         -0.9689888182        2.1220812858       -3.9350452699
 C         -0.8337128893        1.4235697992       -2.7531915478
 C         -1.5342229564       -0.1017141459        0.1414107342
 C         -1.4350794738       -1.4518238713        0.4623465074
 C         -2.5583692906       -2.2441324698        0.5999489270
 C         -3.8239648743       -1.6898312236        0.4269371604
 N         -4.9707463937       -2.4852382129        0.5737966645
 C         -6.0057940795       -2.5851288481       -0.3328302942
 C         -6.1473321678       -1.9941235534       -1.5816467397
 C         -7.2872388297       -2.2851742058       -2.3075964722
 C         -8.2620390656       -3.1498861534       -1.8146388138
 C         -8.1153756982       -3.7601082441       -0.5823349408
 C         -6.9796686383       -3.4830649082        0.1651849677
 C         -6.4985633144       -3.9379721803        1.4420316252
 C         -7.0066083508       -4.8004951777        2.4029579748
 C         -6.2770213704       -5.0065792438        3.5595640245
 C         -5.0645027418       -4.3531231917        3.7690439363
 C         -4.5382821620       -3.4892372062        2.8268142857
 C         -5.2542074365       -3.2978072083        1.6522020144
 C         -3.9422984783       -0.3399504589        0.1059486874
 C         -2.8074332963        0.4334529989       -0.0385064519
 C          1.5419409325       -0.0939605846       -0.1455075321
 C          2.1132211817       -0.6230104968        1.0093397474
 C          3.2386559607       -1.4213677517        0.9565009417
 C          3.8312016382       -1.7023321153       -0.2720582280
 N          4.9818228993       -2.5032081288       -0.3349321417
 C          5.1553525645       -3.6057227488       -1.1457474644
 C          4.2625133697       -4.2058684556       -2.0240352028
 C          4.6858285442       -5.3328606911       -2.7035878940
 C          5.9608448397       -5.8608612381       -2.5126672246
 C          6.8461517666       -5.2808740791       -1.6225043737
 C          6.4440997547       -4.1484459623       -0.9287415023
 C          7.0745479974       -3.3167079039        0.0611623958
 C          8.3252716843       -3.3261094120        0.6620578487
 C          8.6245948783       -2.3388760788        1.5831496000
 C          7.7000055833       -1.3446070562        1.8954403650
 C          6.4480869155       -1.3140884129        1.3099404740
 C          6.1335084181       -2.3161187886        0.4012567179
 C          3.2774533934       -1.1765089429       -1.4361863131
 C          2.1473947360       -0.3849013880       -1.3640183083
 C         -0.9168479534        2.3912299328        2.3401903667
 C         -0.7820267236        3.2112573588        3.4206234421
 C         -0.5334576764        5.3486906266        5.4988092557
 H         -1.1743580728        6.6103074278        7.0991361835
 H          1.1851420861        7.2187363801        7.7334761095
 H          2.7519600182        4.6688040760        4.9697534618
 H          2.4877371802        4.0700533642        2.9879593312
 H          2.2186042532        2.5975633513        1.0852889009
 H          0.8423354277        3.7196061380       -0.9483536370
 H          0.6197159853        4.9670665034       -3.0419530270
 H         -0.2978235681        2.4765647821       -6.6232183547
 H         -0.5787238820        3.8324938389       -8.6879532394
 H         -1.0037453004        6.2872667423       -8.4542215232
 H         -0.9577466039        6.0793284119       -4.3886083834
 H         -1.4992123051        1.6754218637       -4.7645588607
 H         -1.2473844447        0.4276527089       -2.6757045249
 H         -0.4582565374       -1.8926920525        0.5959036788
 H         -2.4639449001       -3.2964178936        0.8254102933
 H         -5.3898665479       -1.3351852170       -1.9779643503
 H         -7.4233252393       -1.8349525501       -3.2799692831
 H         -9.1402304884       -3.3504844818       -2.4104203251
 H         -8.8648670381       -4.4414629233       -0.2088706040
 H         -7.9537943378       -5.2953350486        2.2498291555
 H         -6.6541082074       -5.6759219957        4.3186297705
 H         -4.5251658359       -4.5220966215        4.6894975207
 H         -3.6069742671       -2.9735146517        3.0047781976
 H         -4.9234083735        0.0967780612       -0.0118029114
 H         -2.9092510119        1.4783612969       -0.2938875080
 H          1.6619885324       -0.4055379785        1.9667686794
 H          3.6567571650       -1.8427865299        1.8591345116
 H          3.2674987707       -3.8125979947       -2.1659674236
 H          4.0117450314       -5.8169858280       -3.3948841563
 H          6.2556751582       -6.7415498061       -3.0639132290
 H          7.8284357766       -5.7001865853       -1.4652991626
 H          9.0490245053       -4.0865445377        0.4103677392
 H          9.5920134191       -2.3297115054        2.0631059302
 H          7.9682469220       -0.5781547066        2.6076053708
 H          5.7442646467       -0.5302030288        1.5448339263
 H          3.7494870022       -1.3751204683       -2.3874860643
 H          1.7313692691        0.0264675197       -2.2720384222
 H         -1.8667503383        1.9073346566        2.1585468270
 H         -1.6240561666        3.3582947054        4.0804510997
 H         -1.5358385296        5.1642220348        5.1441880453
