  70
 
 C         -8.1872820484       -2.8295504721       -0.9847105877
 C         -8.2543278095       -1.5286558920       -1.4566828429
 C         -7.2780674621       -0.6109037775       -1.1139768645
 C         -6.2283711056       -0.9925126016       -0.2835077962
 N         -5.2363461017       -0.0629726273        0.0706502901
 C         -5.4580648800        1.1911647303        0.6076825700
 C         -6.6526459507        1.8043358945        0.9575019276
 C         -6.5905940957        3.0719756134        1.5059786402
 C         -5.3730180028        3.7169892537        1.7118471114
 C         -4.1790262702        3.1025615926        1.3857397995
 C         -4.2163557355        1.8288693602        0.8349853980
 C         -3.2001448211        0.9075422992        0.4024339761
 C         -1.8187587099        0.9725144001        0.3572211055
 C         -1.0963978222       -0.1163859970       -0.1361379319
 C          0.3606682160       -0.0854892313       -0.1829483030
 C          1.1135113446       -1.1314588186        0.4355376773
 C          0.4946680777       -2.1419605087        1.1784810498
 C          1.2196573228       -3.2045917836        1.7118586278
 C          2.5819003746       -3.2742112935        1.5101677515
 C          3.2331811218       -2.2480627136        0.8304779577
 C          2.5375641980       -1.1412108181        0.3332265469
 C          3.2097188324       -0.0468672078       -0.2932248523
 C          4.6652772031       -0.0327173648       -0.3761525988
 C          5.3028855750        0.0967514450       -1.6360277378
 C          6.6612235185        0.0885160184       -1.7429939427
 C          7.4837517522       -0.0236715675       -0.5981239395
 C          8.8887449992       -0.0230561267       -0.6743647203
 C          9.6513118561       -0.1270889139        0.4589494682
 C          9.0379196443       -0.2382704544        1.7161261321
 C          7.6747274882       -0.2471152064        1.8228491318
 C          6.8600191012       -0.1415062060        0.6733885737
 C          5.4566993644       -0.1515217446        0.7518777787
 C          2.4595270786        1.0346119509       -0.8497674818
 C          3.0884127862        2.1649939213       -1.3816567115
 C          2.3622908488        3.1795838020       -2.0006485561
 C          0.9914058934        3.0733506210       -2.1042293471
 C          0.3347588330        1.9873863749       -1.5307000461
 C          1.0326893944        0.9874713843       -0.8452987510
 C         -1.7956281227       -1.2480545554       -0.6006807864
 C         -3.1702193051       -1.3237983136       -0.5808610852
 C         -3.8784800414       -0.2480837051       -0.0558004930
 C         -6.1638661994       -2.2984300205        0.1935307697
 C         -7.1398239583       -3.2115148370       -0.1623621766
 H         -8.9495253866       -3.5438426074       -1.2574168555
 H         -9.0664845136       -1.2278428393       -2.1019393508
 H         -7.3152981653        0.3984482213       -1.4961042482
 H         -7.6002768214        1.3072919641        0.8153898227
 H         -7.5068611668        3.5719276857        1.7842714505
 H         -5.3663204277        4.7082131432        2.1409861055
 H         -3.2346017288        3.5966014221        1.5589097298
 H         -1.2982352087        1.8403258149        0.7337969853
 H         -0.5702439233       -2.0980529860        1.3478330534
 H          0.7062597191       -3.9743558262        2.2694738689
 H          3.1526044117       -4.1107061498        1.8862316481
 H          4.3000866195       -2.3147664194        0.6814956371
 H          4.6860170268        0.1627298975       -2.5211833110
 H          7.1323150606        0.1630852136       -2.7134738963
 H          9.3571858520        0.0642385985       -1.6450201443
 H         10.7298251655       -0.1231200873        0.3930056290
 H          9.6538502677       -0.3172788279        2.6007185221
 H          7.1979522502       -0.3356986008        2.7891576557
 H          4.9912691710       -0.2191994136        1.7256870065
 H          4.1614398364        2.2582269767       -1.3104556601
 H          2.8808068139        4.0357247989       -2.4068502249
 H          0.4179890325        3.8335676753       -2.6144885422
 H         -0.7381567550        1.9171906279       -1.6242316106
 H         -1.2269878135       -2.0637769416       -1.0229434115
 H         -3.6802318626       -2.1889985158       -0.9769578241
 H         -5.3565647829       -2.5863941497        0.8504477864
 H         -7.0853726444       -4.2235361126        0.2109441857
