  79
 
 C          7.3420398436       -3.4042490735        1.6096377381
 C          6.5916580732       -2.5026586526        2.3484647408
 C          6.0862106161       -1.3617266809        1.7559987351
 C          6.3236386871       -1.1096274091        0.4036724711
 N          5.8171044481        0.0458263328       -0.2026608711
 C          6.5853501620        0.7189998135       -1.1601106284
 C          7.9684857567        0.8267198095       -1.0060221334
 C          8.7234405522        1.4874054005       -1.9556628098
 C          8.1159474680        2.0535346958       -3.0656928868
 C          6.7422807763        1.9510993727       -3.2220839534
 C          5.9786163902        1.2876536415       -2.2814398607
 C          4.5542081740        0.5251447380        0.1440150627
 C          3.5165203293       -0.3575377397        0.4584834654
 C          2.2701728655        0.1209558250        0.7958575429
 C          2.0064054626        1.4931728509        0.8352043952
 C          0.6754451642        1.9961777003        1.1861825224
 C          0.5332863402        3.1957978940        1.9113049047
 C         -0.7380261658        3.6920992668        2.1885536301
 C         -1.8599994399        3.0147025839        1.7906396730
 C         -1.7520944228        1.7689191195        1.1003163368
 C         -2.9455200840        1.1265058109        0.7240315679
 N         -4.1250233441        1.7774841630        0.6825022793
 C         -5.0107259686        0.9394765451        0.1696216894
 C         -6.3791336513        1.2037638351       -0.1341965804
 C         -6.9209628364        2.4748617148        0.0631235191
 C         -8.2346457662        2.7370571802       -0.2731358868
 C         -9.0061855772        1.7219348097       -0.8197455325
 C         -8.4806137904        0.4568843451       -1.0127400447
 C         -7.1583771114        0.1486302983       -0.6666104881
 C         -6.5895115539       -1.1804118123       -0.8121082325
 C         -7.3622389989       -2.2635183381       -1.2278959015
 C         -6.8538695267       -3.5439164396       -1.3292532396
 C         -5.5205639205       -3.7923606856       -0.9880302287
 C         -4.7179331002       -2.7631750485       -0.5838323944
 C         -5.2024504026       -1.4311455647       -0.4995846135
 C         -4.4251397185       -0.3448081314       -0.0900677496
 N         -3.0989679191       -0.2068580073        0.2653417219
 C         -2.0982927858       -1.1860749005        0.2940438617
 C         -1.6951359113       -1.8233246146       -0.8819910732
 C         -0.6889380916       -2.7687505443       -0.8434020393
 C         -0.0742385073       -3.0903070465        0.3584227967
 C         -0.4714214740       -2.4566394995        1.5272728678
 C         -1.4758080954       -1.5086351033        1.5019000964
 C         -0.4529436342        1.3027056229        0.7952825546
 C          3.0506499823        2.3687741553        0.5247177009
 C          4.2996598673        1.8992999280        0.1841279508
 C          7.0773001690       -2.0220147735       -0.3367737544
 C          7.5822632142       -3.1572847177        0.2668686731
 H          7.7375012521       -4.2932184295        2.0771970135
 H          6.4054989664       -2.6842573368        3.3967512188
 H          5.5135957996       -0.6534100335        2.3364116268
 H          8.4413198964        0.3973970217       -0.1349845464
 H          9.7922986916        1.5683668319       -1.8237233600
 H          8.7092097288        2.5706476455       -3.8045028887
 H          6.2624147899        2.3835230669       -4.0876933897
 H          4.9102283443        1.1962242099       -2.4112286967
 H          3.6951142821       -1.4221757048        0.4258954888
 H          1.4854991544       -0.5785535642        1.0418451478
 H          1.4066890108        3.7211609943        2.2640180185
 H         -0.8371031979        4.6233461840        2.7285110689
 H         -2.8494124062        3.3887845525        1.9985300433
 H         -6.2802604200        3.2390116472        0.4761546654
 H         -8.6532750245        3.7203435261       -0.1191134139
 H        -10.0316669327        1.9165409140       -1.0998662120
 H         -9.1209648885       -0.2957303380       -1.4442644440
 H         -8.4025715205       -2.1159262785       -1.4710553912
 H         -7.4897188282       -4.3534609829       -1.6547736273
 H         -5.1286522319       -4.7979502567       -1.0378807380
 H         -3.6985133446       -2.9651599646       -0.2993646790
 H         -2.1738119048       -1.5622612892       -1.8151190212
 H         -0.3779805026       -3.2529809420       -1.7573512502
 H          0.7134307967       -3.8279508789        0.3831191300
 H          0.0023971500       -2.7052912544        2.4657993374
 H         -1.7876835388       -1.0077266770        2.4068876371
 H         -0.3368752917        0.4256622167        0.1799403182
 H          2.8730710902        3.4336571647        0.5349705411
 H          5.0940191492        2.5940125935       -0.0461874557
 H          7.2551241299       -1.8372088162       -1.3859711105
 H          8.1604171087       -3.8580745141       -0.3171144134
