  61
 
 C         -4.7524380986        3.7034749813        0.3616280532
 C         -4.6101983939        2.4136318110        0.9057203334
 C         -3.4343686768        1.7378361287        0.7673060833
 C         -2.3421437838        2.3203860756        0.0517536669
 C         -1.0794924245        1.7315095679       -0.1376615379
 C          0.0246922060        2.5800744111       -0.4661225145
 C          1.3073015673        2.1428950729       -0.4649055502
 C          1.6001831338        0.7817710769       -0.1757090376
 N          2.9175663649        0.3318957663       -0.2014116766
 C          3.3935690142       -0.7720180565       -0.8802955504
 C          2.7219557060       -1.6564466602       -1.7142293529
 C          3.4511581221       -2.6750746811       -2.2979478619
 C          4.8187753193       -2.8130053700       -2.0705239434
 C          5.5001129664       -1.9177955351       -1.2668160439
 C          4.7902861572       -0.8855788981       -0.6720110926
 C          5.1670535822        0.2151915531        0.1711845618
 C          6.3702680732        0.6294570105        0.7223774736
 C          6.3765064850        1.7508541449        1.5313227834
 C          5.1997305965        2.4447422049        1.8061282633
 C          3.9884781351        2.0505689089        1.2699259253
 C          3.9802798002        0.9418922240        0.4335885544
 C          0.5378295266       -0.1034227928        0.0273982235
 C         -0.7686951659        0.3264035242        0.0229553765
 N         -1.7898323320       -0.6221951485        0.1519606731
 C         -2.8343557125       -0.7991346669       -0.7353009747
 C         -3.1273335464       -0.1024911403       -1.8988233497
 C         -4.2406542220       -0.4937871435       -2.6174291846
 C         -5.0390557176       -1.5567949820       -2.2007826007
 C         -4.7378714425       -2.2680650386       -1.0547079789
 C         -3.6263592862       -1.8925729761       -0.3143576741
 C         -3.0185472881       -2.3978691065        0.8865232002
 C         -3.3341703288       -3.4288987005        1.7591664977
 C         -2.5262433236       -3.6337044417        2.8620856290
 C         -1.4242387183       -2.8169246490        3.1073351137
 C         -1.0889187869       -1.7839682576        2.2531456515
 C         -1.8835940858       -1.5874377932        1.1315025129
 N         -2.5191587013        3.5912757252       -0.4263403878
 C         -3.6392351630        4.2374963643       -0.2727373491
 H         -5.6789879923        4.2487277765        0.4187898718
 H         -5.4278334189        1.9741020714        1.4590667025
 H         -3.2822842821        0.8047568038        1.2847046332
 H         -0.2182764969        3.6060669659       -0.7000999040
 H          2.1196504729        2.8018263988       -0.7323813358
 H          1.6686224800       -1.5438492684       -1.9194197028
 H          2.9504852417       -3.3755499711       -2.9495795859
 H          5.3531100978       -3.6242731746       -2.5418184967
 H          6.5637766238       -2.0127633813       -1.1089226017
 H          7.2799931276        0.0824503954        0.5260516471
 H          7.3036843259        2.0908725361        1.9678747322
 H          5.2341520876        3.3056540879        2.4569786818
 H          3.0779622535        2.5805611465        1.5038927140
 H          0.7455209554       -1.1520515409        0.1842384193
 H         -2.5094660441        0.7178909811       -2.2289730739
 H         -4.4960354424        0.0345556320       -3.5238273577
 H         -5.9020799580       -1.8308418765       -2.7891454425
 H         -5.3498302010       -3.1002048154       -0.7406233684
 H         -4.1966224418       -4.0529631219        1.5800803259
 H         -2.7543762650       -4.4323230941        3.5520608626
 H         -0.8215291783       -2.9925476034        3.9859675839
 H         -0.2447712906       -1.1429063735        2.4575473770
 H         -3.6737655122        5.2253963411       -0.7166671872
