  86
 
 C          0.5003446850       -1.5107200063       -4.2620299589
 C          1.0580171503       -2.6851703227       -3.4663563061
 C          0.0302254123       -3.2388830724       -2.4818271362
 C          0.5842547623       -4.4148691541       -1.6769518511
 C         -0.3835731201       -4.9141541934       -0.5918880361
 C         -0.3445028254       -6.4418272621       -0.4464656456
 C         -1.0631846401       -7.1590224038       -1.5842164900
 C         -0.0657586614       -4.2818526387        0.7809952349
 N         -0.0331139308       -2.8484860674        0.7443728256
 C          1.0938948043       -2.0668446097        0.6925880118
 C          2.4278505578       -2.4226273197        0.7692153991
 C          3.3900877110       -1.4100674733        0.7062139645
 C          3.0121519341       -0.0721956890        0.5506465441
 N          3.9952843804        0.9143290271        0.4816392190
 C          5.0687487364        1.0523296111        1.3429487313
 C          5.3877885992        0.3229003418        2.4768183095
 C          6.5142106944        0.7005196879        3.1958123557
 C          7.2933348690        1.7838093649        2.8008323475
 C          6.9633767743        2.5352159314        1.6865190080
 C          5.8389770297        2.1755997158        0.9501958472
 C          5.1975314821        2.7284795890       -0.2067902193
 C          5.4899918662        3.7989003951       -1.0461354890
 C          4.6549710404        4.0437343225       -2.1223438371
 C          3.5529579391        3.2335442085       -2.3785182424
 C          3.2427698221        2.1584579274       -1.5562527771
 C          4.0576721347        1.9252523456       -0.4603397319
 C          1.6661794364        0.3001916810        0.4732145202
 C          0.6943672801       -0.7005041801        0.5629896825
 C         -0.7248251546       -0.6892948706        0.5437684586
 C         -1.6820742780        0.3233465387        0.4320501395
 C         -3.0339630694       -0.0353595429        0.4628990072
 N         -4.0021848303        0.9647622713        0.3699598022
 C         -4.0154132783        1.9883456210       -0.5600901572
 C         -3.1592986123        2.2225268461       -1.6241915505
 C         -3.4209051852        3.3155309916       -2.4394139776
 C         -4.5161455217        4.1424657697       -2.2087207699
 C         -5.3927511466        3.8964972312       -1.1665243990
 C         -5.1490086207        2.8084534774       -0.3344335554
 C         -5.8395661032        2.2514244514        0.7919304841
 C         -6.9826766768        2.6209786963        1.4935494320
 C         -7.3643109981        1.8612142274        2.5853311544
 C         -6.6179263507        0.7593262421        2.9920767273
 C         -5.4738072774        0.3717007762        2.3076899098
 C         -5.1021987313        1.1102213081        1.1957475821
 C         -3.4326609220       -1.3695675005        0.5937120657
 C         -2.4843498482       -2.3937288553        0.6853112327
 C         -1.1466476283       -2.0487438924        0.6590624369
 H          0.1867676251       -0.7129665238       -3.5913743305
 H         -0.3623180375       -1.8203788514       -4.8489533508
 H          1.2530260840       -1.1138800840       -4.9400521155
 H          1.3683292059       -3.4754626804       -4.1545868915
 H          1.9436943443       -2.3588387195       -2.9150747423
 H         -0.2781594980       -2.4350066618       -1.8122032423
 H         -0.8567520134       -3.5645068940       -3.0317881112
 H          0.8051937041       -5.2283474342       -2.3698738226
 H          1.5302595245       -4.1190796029       -1.2199094426
 H         -1.3996266223       -4.6206972575       -0.8734060676
 H          0.6955053283       -6.7723809412       -0.4015138374
 H         -0.8212669576       -6.7241444030        0.4953459849
 H         -2.1121579001       -6.8712675595       -1.6124214636
 H         -1.0072264656       -8.2362974123       -1.4442288678
 H         -0.6185982717       -6.9185888116       -2.5466790514
 H          0.9045052258       -4.6424369133        1.1276921110
 H         -0.8259015293       -4.5936971595        1.5045798434
 H          2.7469104754       -3.4491955232        0.8598970348
 H          4.4373584670       -1.6652847605        0.7274774761
 H          4.7761706917       -0.5044022561        2.8023674267
 H          6.7857914096        0.1447883129        4.0810308216
 H          8.1644821383        2.0473436680        3.3832876844
 H          7.5589529021        3.3873584658        1.3957265898
 H          6.3550220325        4.4182518376       -0.8629475794
 H          4.8661033526        4.8715604852       -2.7838327580
 H          2.9295358365        3.4388218995       -3.2360640624
 H          2.3998000726        1.5212525184       -1.7741428259
 H          1.3886623341        1.3397092553        0.4062569083
 H         -1.3916560888        1.3603105124        0.3825524216
 H         -2.3212823620        1.5725416392       -1.8237564510
 H         -2.7640048773        3.5224683562       -3.2711741431
 H         -4.6884679939        4.9845830565       -2.8634038642
 H         -6.2521057776        4.5292095624       -1.0034106010
 H         -7.5531895845        3.4871055078        1.1938506693
 H         -8.2506470997        2.1323946642        3.1406540321
 H         -6.9300737297        0.1962393306        3.8591427945
 H         -4.8885127855       -0.4706098349        2.6428655604
 H         -4.4829237971       -1.6122400339        0.5764690926
 H         -2.8100031757       -3.4188627596        0.7580649036
