  92
 
 C          6.8031016761       -1.9636328873        0.4668845835
 C          5.6541199137       -1.0590938739       -0.0191202961
 C          6.2141798716        0.2579396874       -0.5904342373
 C          4.8962166083       -1.7700988938       -1.1215589333
 C          5.5713841431       -2.1381861100       -2.2784840560
 C          4.9306246164       -2.7432543855       -3.3431621155
 C          3.5671366474       -2.9719703000       -3.2691539558
 C          2.8737067408       -2.6206608113       -2.1312037537
 C          3.5235723417       -2.0388674372       -1.0360326675
 N          2.8082056069       -1.7392589638        0.1160480213
 C          1.3927570082       -1.7686885011        0.0854378843
 C          0.6851726986       -2.9664039491        0.0474014246
 C         -0.6954100583       -2.9645046239       -0.0306519849
 C         -1.3992464345       -1.7648425376       -0.0766687436
 N         -2.8145969673       -1.7310067457       -0.1068555394
 C         -3.4155323118       -1.1036601882       -1.1857077140
 C         -2.6675210111       -0.8785728783       -2.3487818080
 C         -3.2176730216       -0.2376039481       -3.4363316326
 C         -4.5383307614        0.1781624419       -3.3931894086
 C         -5.2958263921       -0.0877082469       -2.2676393097
 C         -4.7657173358       -0.7330735310       -1.1580453829
 C         -5.6580432254       -1.0398766868        0.0259638891
 C         -6.8104420353       -1.9430258296       -0.4545174615
 C         -6.2131332377        0.2822860559        0.5902418383
 C         -4.9021099239       -1.7474549707        1.1319451590
 C         -5.5780583665       -2.1067418656        2.2911758138
 C         -4.9389652355       -2.7081741391        3.3589004157
 C         -3.5762933447       -2.9419325096        3.2856276960
 C         -2.8821437803       -2.5993915107        2.1454555661
 C         -3.5304555149       -2.0215413946        1.0472799763
 C         -0.7166906093       -0.5325357078       -0.0553339879
 N         -1.3648011855        0.6278090231       -0.1373774108
 C         -0.7013733185        1.7843300328       -0.0837621919
 C         -1.4045403606        3.0251515816       -0.1889748384
 C         -2.7953623616        3.0106219334       -0.3812269761
 C         -3.5016930361        4.1800594836       -0.4938933084
 C         -2.8275338754        5.3998614116       -0.4165231510
 C         -1.4656631049        5.4328275500       -0.2319350770
 C         -0.7100330704        4.2561471472       -0.1136257040
 C          0.7225695493        4.2545925331        0.0789146218
 C          1.4818054203        5.4297054634        0.1892931491
 C          2.8436466509        5.3938132877        0.3735467452
 C          3.5141166343        4.1724964052        0.4587205811
 C          2.8041214485        3.0044901797        0.3544799422
 C          1.4132855370        3.0219868286        0.1625651192
 C          0.7062311400        1.7826509267        0.0662850151
 N          1.3659836639        0.6244642194        0.1285959725
 C          0.7141612795       -0.5343939337        0.0552451360
 C          3.4107438524       -1.1079159884        1.1916722712
 C          2.6628224580       -0.8733388003        2.3529065043
 C          3.2147358419       -0.2283626886        3.4371979863
 C          4.5370186074        0.1820355485        3.3926054650
 C          5.2941699479       -0.0929016255        2.2690027768
 C          4.7623063659       -0.7424993706        1.1627177918
 H          6.3989842371       -2.8905157044        0.8702535763
 H          7.4751827834       -2.2082761220       -0.3502756975
 H          7.3782801296       -1.4720134710        1.2459168815
 H          6.8956596029        0.0632183810       -1.4134711119
 H          5.3982303712        0.8772228471       -0.9594439818
 H          6.7504567170        0.8137360177        0.1732486625
 H          6.6294189794       -1.9426459378       -2.3587099188
 H          5.4865046028       -3.0190616691       -4.2262573556
 H          3.0398976310       -3.4222191052       -4.0970774553
 H          1.8095377948       -2.7902674633       -2.0906739149
 H          1.2279375326       -3.8987266011        0.0852203695
 H         -1.2410461669       -3.8953717071       -0.0622818135
 H         -1.6428557078       -1.2154222245       -2.3927502438
 H         -2.6166893950       -0.0652878588       -4.3169568890
 H         -4.9783476781        0.6914313851       -4.2345712177
 H         -6.3301342713        0.2199685814       -2.2584165924
 H         -6.4097082602       -2.8732934895       -0.8534480008
 H         -7.3846070492       -1.4534998139       -1.2356220655
 H         -7.4826853528       -2.1812508997        0.3644060475
 H         -5.3948415268        0.9006177183        0.9556422075
 H         -6.7475688667        0.8358400118       -0.1763506425
 H         -6.8951376309        0.0945688814        1.4144730559
 H         -6.6353668793       -1.9070618052        2.3707427416
 H         -5.4954300222       -2.9772857787        4.2436938101
 H         -3.0502781291       -3.3893873475        4.1158398109
 H         -1.8185794291       -2.7728708270        2.1054985268
 H         -3.2827216466        2.0492315209       -0.4444411110
 H         -4.5709386930        4.1606383488       -0.6444465048
 H         -3.3794164747        6.3244408139       -0.5042043438
 H         -0.9763075809        6.3926203215       -0.1816078368
 H          0.9953656263        6.3906335388        0.1327330739
 H          3.3984060753        6.3172626561        0.4547575345
 H          4.5833795856        4.1508340607        0.6088418076
 H          3.2885363770        2.0420548750        0.4240899880
 H          1.6367806859       -1.2058295316        2.3980409355
 H          2.6138419028       -0.0487341536        4.3164243235
 H          4.9784712449        0.6983760647        4.2313524659
 H          6.3296118976        0.2109100534        2.2587220382
