108

C      8.553487    2.879519    1.011258
C      8.162663    1.604591    1.775964
C      7.334577    1.995064    3.016517
C      9.436886    0.886811    2.262091
C      7.365877    0.701530    0.836430
N      6.034178    0.753875    0.884106
C      5.391330   -0.028521    0.015337
C      3.913007   -0.011323    0.043567
C      3.151522   -0.839263   -0.802089
C      1.753604   -0.828708   -0.774543
C      1.077358    0.028135    0.102854
N     -0.344184    0.022815    0.081673
C     -1.149625    1.127660   -0.178535
C     -0.831450    2.456179   -0.514715
C     -1.878922    3.362383   -0.721433
C     -3.222566    2.979017   -0.618587
N     -4.286049    3.935352   -0.828329
C     -4.164376    5.276886   -0.307078
C     -3.601297    5.514479    0.959638
C     -3.481887    6.813054    1.461913
C     -3.923575    7.896659    0.706797
C     -4.484673    7.683945   -0.550049
C     -4.604384    6.385350   -1.052434
C     -5.475816    3.545411   -1.548145
C     -5.395282    2.738141   -2.696873
C     -6.547129    2.354368   -3.388639
C     -7.799345    2.771525   -2.943895
C     -7.901603    3.572845   -1.809301
C     -6.749777    3.956953   -1.117665
C     -3.512497    1.635539   -0.315201
C     -2.475241    0.698815   -0.108364
C     -2.466752   -0.701508    0.162757
C     -3.491178   -1.660621    0.326153
C     -3.182547   -3.006892    0.597411
N     -4.232649   -3.984584    0.769605
C     -4.088718   -5.303955    0.201373
C     -4.492094   -6.447152    0.913755
C     -4.350086   -7.724206    0.364087
C     -3.804034   -7.879485   -0.907818
C     -3.398695   -6.760145   -1.630845
C     -3.539016   -5.483336   -1.080623
C     -5.424315   -3.640811    1.509452
C     -5.351383   -2.862909    2.678699
C     -6.504421   -2.525130    3.392060
C     -7.751091   -2.958771    2.947776
C     -7.846180   -3.731352    1.792999
C     -6.692893   -4.069938    1.080044
C     -1.834462   -3.373613    0.704741
C     -0.799868   -2.443717    0.546458
C     -1.136414   -1.108502    0.257379
C      1.799113    0.857668    0.971966
C      1.176882    1.677695    1.974831
N      0.708200    2.346974    2.798796
C      3.204512    0.829272    0.928104
N      5.987881   -0.823666   -0.874687
C      7.322614   -0.809085   -0.861195
C      8.053188   -1.668452   -1.891014
C      9.553621   -1.802267   -1.561826
C      7.905218   -1.011601   -3.273495
C      7.443532   -3.082715   -1.924759
N      8.045908   -0.049243   -0.034982
H      7.667336    3.419444    0.656484
H      9.127930    3.562467    1.647576
H      9.168360    2.648404    0.133273
H      7.921584    2.614007    3.705028
H      7.001639    1.107482    3.567772
H      6.441800    2.570492    2.744183
H     10.112340    0.647751    1.432188
H      9.192440   -0.053927    2.770133
H      9.998472    1.511295    2.966771
H      3.651177   -1.507374   -1.504047
H      1.209251   -1.471197   -1.465209
H      0.195320    2.792295   -0.621580
H     -1.627908    4.388444   -0.984542
H     -3.264563    4.682450    1.574358
H     -3.045826    6.973731    2.444451
H     -3.830585    8.906289    1.098154
H     -4.827102    8.527208   -1.143720
H     -5.029006    6.243071   -2.043445
H     -4.426630    2.414140   -3.070035
H     -6.463283    1.731157   -4.274937
H     -8.695286    2.471175   -3.480722
H     -8.877268    3.896161   -1.456223
H     -6.853357    4.565730   -0.222399
H     -4.544675    1.306798   -0.227073
H     -4.527543   -1.348149    0.226418
H     -4.905245   -6.349080    1.915077
H     -4.664286   -8.595453    0.932733
H     -3.695281   -8.872716   -1.335666
H     -2.977418   -6.877050   -2.625668
H     -3.233984   -4.621196   -1.669117
H     -4.387370   -2.526201    3.053373
H     -6.425206   -1.923858    4.293814
H     -8.647983   -2.693781    3.501317
H     -8.817812   -4.067669    1.441267
H     -6.792472   -4.657120    0.170207
H     -1.571876   -4.402657    0.944087
H      0.231765   -2.760908    0.666235
H      3.763936    1.469189    1.613685
H     10.063400   -2.439855   -2.293337
H      9.706559   -2.246141   -0.570965
H     10.058168   -0.828764   -1.571057
H      8.422024   -1.593140   -4.045384
H      6.852975   -0.929458   -3.570708
H      8.326454    0.000822   -3.279766
H      6.389421   -3.066072   -2.225695
H      7.973989   -3.724617   -2.637369
H      7.496943   -3.560659   -0.939389
