81

N      2.395947    1.744549    2.843217
C      2.946452    1.201440    1.977334
C      3.627788    0.509154    0.930738
C      4.929793    0.814545    0.565166
C      5.762740    1.833544    1.230777
C      6.326880    2.883385    0.484189
C      7.118227    3.859921    1.093999
C      7.366671    3.799272    2.462288
C      6.831643    2.759874    3.218796
C      6.040936    1.782306    2.607840
N      5.551427    0.201433   -0.471694
C      4.872339   -0.740213   -1.146661
C      5.545334   -1.410691   -2.275848
C      4.891499   -2.395610   -3.042232
C      5.527487   -3.031619   -4.113540
C      6.836753   -2.696933   -4.444596
C      7.509582   -1.728568   -3.706094
C      6.870338   -1.094565   -2.635510
N      3.613584   -1.101873   -0.853087
C      3.004942   -0.479830    0.183996
C      1.625304   -0.936395    0.418160
C      1.252112   -1.566304    1.617931
C     -0.068588   -1.971523    1.839212
C     -1.039532   -1.751187    0.857357
N     -2.395761   -2.142203    1.073169
C     -2.772213   -3.441861    1.467678
C     -2.035842   -4.528472    1.988014
C     -2.684464   -5.748107    2.209352
C     -4.026007   -5.909928    1.894577
C     -4.748570   -4.853554    1.338093
C     -4.120923   -3.608218    1.115855
C     -4.570216   -2.385279    0.551501
C     -5.776357   -1.933887   -0.025939
C     -5.916109   -0.599878   -0.466406
C     -4.859802    0.300506   -0.240385
C     -3.716739   -0.141253    0.406958
C     -2.937729    0.991762    0.805291
C     -1.831862    1.234876    1.652514
C     -1.260508    2.507313    1.738291
C     -1.783132    3.557026    1.002271
C     -2.919360    3.371810    0.213349
C     -3.530576    2.098728    0.169522
N     -4.701749    1.662902   -0.467513
C     -5.623042    2.479885   -1.190088
C     -5.966871    3.752609   -0.718239
C     -6.873158    4.540910   -1.431002
C     -7.437517    4.064399   -2.613256
C     -7.101356    2.796494   -3.084696
C     -6.198679    2.001702   -2.375129
C     -3.531834   -1.481020    0.688591
C     -0.678908   -1.147200   -0.353356
C      0.643466   -0.750240   -0.568465
H      6.150740    2.942804   -0.588896
H      7.541865    4.664775    0.498718
H      7.982288    4.558299    2.938227
H      7.032037    2.706671    4.286159
H      5.653421    0.973525    3.224237
H      3.866456   -2.678804   -2.805696
H      4.996677   -3.787974   -4.686093
H      7.332195   -3.190636   -5.276405
H      8.532984   -1.463585   -3.959102
H      7.422372   -0.341562   -2.074285
H      1.987217   -1.741983    2.401358
H     -0.328289   -2.400554    2.803711
H     -0.975889   -4.455684    2.203600
H     -2.123183   -6.584978    2.619070
H     -4.513618   -6.866065    2.065974
H     -5.793481   -4.992073    1.074937
H     -6.610277   -2.621639   -0.142601
H     -6.856779   -0.276909   -0.902599
H     -1.411815    0.444318    2.263100
H     -0.397728    2.666898    2.381436
H     -1.317741    4.538249    1.055535
H     -3.315507    4.211419   -0.349587
H     -5.580316    4.130624    0.224898
H     -7.146998    5.524352   -1.056971
H     -8.142040    4.680708   -3.166023
H     -7.537400    2.428271   -4.009987
H     -5.927272    1.030749   -2.782823
H     -1.408560   -0.988875   -1.144746
H      0.904802   -0.284267   -1.517435
