74
 xtb: 6.7.1 (edcfbbe)
C            8.30905496244455        3.25460864715866       -1.29265634053900
C            8.69572910671142        1.77363748738217       -1.32091294588464
C            8.61900581347009        1.22141693281054       -2.74647838966175
C            7.81705496119753        0.97742375094472       -0.38844678906306
C            8.35571786246314        0.30095319518765        0.69484730290957
C            7.55693601369695       -0.44244801632514        1.55254218796710
C            6.18432849695700       -0.51957469864998        1.32911828959623
O            5.44278462864135       -1.25057530719796        2.18438208680594
C            4.09852846540335       -1.34055324131830        1.96569806232208
C            3.41505970465024       -0.72333016583785        0.90132344907991
C            2.01850539825202       -0.97494852147555        0.67128583352710
C            1.22106774008677       -1.70027441336081        1.59223542342098
C           -0.12163440208736       -1.88344296254304        1.38884309547499
C           -0.75501094042524       -1.36150455032180        0.25575083083102
N           -2.13603407581408       -1.55337535548776        0.04464523419286
C           -2.61379883673183       -2.83919952386657       -0.15748512572958
C           -1.71732690438187       -3.91543542039963       -0.20003027935070
C           -2.16591484345415       -5.20675832561111       -0.36657016034534
C           -3.52093201548317       -5.45305625715310       -0.51289289698127
C           -4.40370095423308       -4.38996475761662       -0.52465669560653
C           -3.97884570560645       -3.07791431206864       -0.36092957305370
C           -4.98907325290168       -1.95472973908444       -0.44349231000895
C           -6.04289832108746       -2.15298989170184        0.66264793037776
C           -5.65439403653914       -2.00541048407606       -1.83197964067056
C           -4.34875836195580       -0.59375010348429       -0.25500703966765
C           -5.15727287452914        0.52836850590496       -0.30426758092334
C           -4.62479714991290        1.78982022009080       -0.08042572447032
C           -3.25515365953978        1.90979422906539        0.23062942818152
C           -2.42702363422200        0.81500571813227        0.28871843365044
C           -2.97012415471675       -0.44901838993594        0.01030614602539
O           -2.89992179688183        3.20186754270360        0.45612259500524
C           -4.03789520728070        3.93930760879478        0.29364760966750
C           -4.15338916948417        5.30959721805405        0.42538190028833
C           -5.40537074683679        5.86416881372879        0.21493933311950
C           -6.50426058453351        5.07527153387444       -0.11566409637157
C           -6.38915571093879        3.70560766407815       -0.24741031006638
C           -5.14229590918563        3.12633425613418       -0.04120300996927
C            0.01790993892642       -0.66364825662781       -0.68281509726068
C            1.36250481158760       -0.50361984632591       -0.48587852246545
C            4.16386532851527        0.11304271063622        0.00134238451890
O            3.68013956745699        0.77504921829771       -0.93957192107072
C            5.62021989614014        0.15697358100218        0.23963522182999
C            6.44022522106545        0.90203132435733       -0.59780904446167
H            7.31865536605962        3.35052296534746       -1.69838633527808
H            8.39951472735252        3.61895529536376       -0.33117914448274
H            9.00840673647727        3.77291556864641       -1.98288903165506
H            9.74636191447703        1.63812581771476       -0.98790583823865
H            7.62922800286412        1.24826963584279       -3.15440443776574
H            8.90273104152975        0.09773056931223       -2.74802268072335
H            9.32012294287357        1.68034102537422       -3.41388809069586
H            9.42129978977258        0.34168886149987        0.89103923143569
H            7.96574334476066       -0.92508543168328        2.43319846756238
H            3.61007805550081       -1.84021558610543        2.78200331837415
H            1.65937166658235       -2.07959242454515        2.49455486281023
H           -0.71053526145576       -2.41958669631699        2.11076093849256
H           -0.64997197230367       -3.72189744729262       -0.12835087892964
H           -1.44038705459764       -6.01102886715662       -0.41293078833142
H           -3.86801614949516       -6.45925317710072       -0.66178394331497
H           -5.44182381023981       -4.59637811330528       -0.68851941808040
H           -6.52568417739018       -3.12828261168807        0.54930143889553
H           -6.80341256729381       -1.39128089920789        0.60854660130473
H           -5.56424376264653       -2.11899960221309        1.63012067970871
H           -4.89718546422360       -1.86703123988868       -2.61566947272550
H           -6.39375530403402       -1.22096533848373       -1.94290081943921
H           -6.13851950359815       -2.96087364157348       -2.00536600391476
H           -6.21528359904636        0.43146139587611       -0.51142839403571
H           -1.39747649432308        0.94082093743220        0.55996218982797
H           -3.32122615689801        5.91303092401814        0.70593105572834
H           -5.55527826612385        6.92492489850274        0.33303717739345
H           -7.48167092310429        5.53680719283387       -0.25770741341034
H           -7.25275656442930        3.08684085655084       -0.49973657893974
H           -0.45657895066710       -0.27081370136083       -1.57467074583025
H            1.95566790593289        0.02267038187946       -1.22989712743441
H            5.98679862517645        1.38427652343702       -1.44271853794148
