  58
 
 N          6.3733315393        0.3275212090       -4.3724980816
 C          6.5573305955        0.2322624708       -3.2417715974
 C          6.8776355397        0.1151748026       -1.8746972667
 C          8.2741523883        0.0876039401       -1.6929546964
 N          9.4217513841        0.0728472526       -1.6261518516
 C          5.9553477510        0.0385753715       -0.8631080357
 C          6.2379347791       -0.0851691394        0.5655968268
 C          7.4355824073       -0.1624046639        1.2562304045
 C          7.3991814770       -0.2775914831        2.6413313630
 C          6.1944410352       -0.3149821911        3.3235910305
 C          4.9848367990       -0.2380200570        2.6400836820
 C          5.0112993230       -0.1244725797        1.2662809990
 C          3.9305135950       -0.0247552205        0.2915439546
 C          2.5673016709       -0.0151764060        0.4613190671
 C          1.7347696751        0.0752839024       -0.6649677026
 C          0.2803539056        0.0707830067       -0.5065248919
 C         -0.3281634256        0.7257355563        0.5670150350
 C         -1.6965267136        0.7218220691        0.7215287622
 C         -2.5133778769        0.0442597262       -0.1887337861
 N         -3.8951654167        0.0255613322       -0.0283779225
 C         -4.6361836091       -1.1077166008       -0.3966822596
 C         -4.1402849923       -2.3876112860       -0.1497992302
 C         -4.8771752755       -3.4999943091       -0.5089116156
 C         -6.1181512134       -3.3559440304       -1.1084001981
 C         -6.6171592277       -2.0862029502       -1.3510706990
 C         -5.8840168294       -0.9676596428       -1.0030038433
 C         -4.5625474612        1.1372226995        0.5078470434
 C         -4.1742646142        2.4308521698        0.1604478066
 C         -4.8391169889        3.5212891517        0.6881181353
 C         -5.9018844976        3.3413976476        1.5590317213
 C         -6.2945025219        2.0577270270        1.9028434052
 C         -5.6303387361        0.9610759652        1.3871471732
 C         -1.9091887490       -0.6163799975       -1.2628590658
 C         -0.5412788797       -0.5946169027       -1.4196657972
 C          2.3150565929        0.1612695853       -1.9332753767
 C          3.6879852167        0.1637645684       -2.1110016851
 C          4.5099436012        0.0683208834       -0.9966899656
 H          8.3832897772       -0.1349816614        0.7419370338
 H          8.3277205267       -0.3387668221        3.1886773181
 H          6.1938452543       -0.4051821345        4.3997499547
 H          4.0488656692       -0.2679871734        3.1764357343
 H          2.1357720620       -0.1055027750        1.4460815297
 H          0.2793278045        1.2650317302        1.2784560518
 H         -2.1466223674        1.2378191436        1.5567702355
 H         -3.1781801376       -2.5024987507        0.3279842781
 H         -4.4831324435       -4.4860913437       -0.3102976270
 H         -6.6927468668       -4.2273421452       -1.3842950008
 H         -7.5817104785       -1.9648946682       -1.8221099418
 H         -6.2718822158        0.0213320419       -1.1994602847
 H         -3.3542012232        2.5732956744       -0.5282882541
 H         -4.5308254492        4.5183505106        0.4091190248
 H         -6.4213870223        4.1958324758        1.9659957654
 H         -7.1188867436        1.9082252834        2.5847007164
 H         -5.9327123980       -0.0387606277        1.6626321937
 H         -2.5254376559       -1.1418617674       -1.9774195309
 H         -0.0982574487       -1.1221695078       -2.2511831853
 H          1.6774756295        0.2524628577       -2.7994460000
 H          4.1002644800        0.2420407822       -3.1048538525
