  40
 
 C          5.4859774283       -1.2125320689       -2.0320556930
 C          4.4829801151       -0.6180554985       -1.1020486853
 N          3.2373446291       -0.7841423939       -1.3052050723
 C          2.3504363622       -0.2143122524       -0.4131351985
 C          0.9906498783       -0.3784039470       -0.6094680171
 C          0.0923644749        0.1972275767        0.2896552522
 N         -1.3039401157        0.0282733423        0.0950786402
 C         -1.8689455014       -1.2139932580        0.2381871956
 C         -1.1305131163       -2.3552103425        0.5821503778
 C         -1.7450396164       -3.5741884931        0.7117607715
 C         -3.1374406505       -3.7033503711        0.5153208565
 C         -3.8937757463       -2.5981626069        0.2080674339
 C         -3.2902906742       -1.3500337690        0.0694781061
 O         -4.0738443645       -0.2862820256       -0.1996911659
 C         -3.5076216160        0.9301571249       -0.3345223566
 C         -4.3287378670        2.0191300105       -0.6115888650
 C         -3.7859647163        3.2699120120       -0.7882122951
 C         -2.3862769139        3.4512256835       -0.7067801468
 C         -1.5596248720        2.3955798756       -0.4269235269
 C         -2.0850090354        1.1116451994       -0.2102716789
 C          0.5522199424        0.9404023132        1.3893114910
 C          1.8960193630        1.1038540844        1.5920401789
 C          2.8247275553        0.5326866968        0.6961621608
 C          4.2372651341        0.6933601432        0.8844450439
 O          4.8045654087        1.2934272040        1.7684528630
 O          5.0418080416        0.0680745305       -0.0905471184
 H          6.1358823951       -1.8902972085       -1.4820311890
 H          4.9726500018       -1.7466024003       -2.8242638678
 H          6.1065179991       -0.4231973657       -2.4515915177
 H          0.6415194222       -0.9388706871       -1.4618886568
 H         -0.0688467450       -2.2609355627        0.7451119611
 H         -1.1627775927       -4.4430939391        0.9719132417
 H         -3.6051340183       -4.6685985903        0.6194087822
 H         -4.9616040112       -2.6630574752        0.0713346125
 H         -5.3908563900        1.8479082493       -0.6880622067
 H         -4.4227782927        4.1124686091       -1.0015116267
 H         -1.9687072006        4.4311805003       -0.8715308061
 H         -0.4916702711        2.5366045852       -0.3746517497
 H         -0.1675275443        1.3659591891        2.0730291885
 H          2.2768411685        1.6638480072        2.4311083019
