  106
 
 O         -0.0099491064        4.5720421414       -0.3777320145
 C         -0.0092451599        3.3003787618       -0.2795805080
 C         -1.2690901118        2.5895022618       -0.1733248149
 C         -1.4538626374        1.2610178197       -0.6034087501
 C         -2.6853852473        0.6559714875       -0.5199450764
 C         -3.7835188253        1.3556405551       -0.0160090540
 N         -5.0534590377        0.7168732387        0.0777363189
 C         -5.2859156858       -0.1599942601        1.1181769083
 C         -4.2919960474       -0.3894133944        2.0803854285
 C         -4.5055326294       -1.2698302770        3.1178354852
 C         -5.7163355279       -1.9398422364        3.2282500164
 C         -6.7094576838       -1.7061073675        2.2954680366
 C         -6.5155158761       -0.8230601996        1.2430938163
 C         -7.6400266936       -0.5925109080        0.2691196809
 C         -8.9044501949       -0.1765997064        1.0040977321
 C         -9.1104174684        0.9494559679        1.7698320319
 C        -10.3559805148        1.1307892507        2.3578599048
 C        -11.3684845281        0.2005852983        2.1771903401
 C        -11.1641266650       -0.9334870680        1.4066377216
 C         -9.9236503507       -1.1211699662        0.8189231960
 C         -9.4152838664       -2.1921045015       -0.0258410662
 C        -10.0189786148       -3.3463566679       -0.4978443027
 C         -9.2799730066       -4.2008334252       -1.3010887209
 C         -7.9640923847       -3.9104661253       -1.6283370443
 C         -7.3526645705       -2.7550870399       -1.1579047626
 C         -8.0843507351       -1.9048726962       -0.3589202271
 C         -7.2888372844        0.4066278435       -0.8009639763
 C         -8.2418190084        0.7291609514       -1.7561593549
 C         -7.9629682838        1.6204737029       -2.7754487781
 C         -6.7013967839        2.1944996138       -2.8533660110
 C         -5.7407881113        1.8891763735       -1.9146658581
 C         -6.0203556469        1.0022164669       -0.8649844957
 C         -3.6314583077        2.6888137944        0.3734251769
 C         -2.4037618756        3.2936982567        0.2837317003
 C          1.2505092689        2.5820921541       -0.2729746361
 C          1.4322843291        1.3325748242        0.3512975090
 C          2.6650908829        0.7247806822        0.3703117445
 C          3.7672018050        1.3440263638       -0.2220896998
 N          5.0399339649        0.7033865061       -0.2042760455
 C          5.2967725562       -0.3012759651       -1.1148433661
 C          4.3195527997       -0.6689512291       -2.0508725680
 C          4.5587292154       -1.6752050264       -2.9604150054
 C          5.7785402668       -2.3379385678       -2.9652777734
 C          6.7541364409       -1.9719964129       -2.0567575290
 C          6.5343602814       -0.9610851034       -1.1323068043
 C          7.6408946873       -0.5907036292       -0.1809475488
 C          8.9037222025       -0.2319055590       -0.9487498698
 C          9.0924059537        0.8033121510       -1.8372679746
 C         10.3401252431        0.9459050200       -2.4313238809
 C         11.3712489486        0.0666476214       -2.1365601661
 C         11.1841951359       -0.9760291223       -1.2425115880
 C          9.9421346929       -1.1238484572       -0.6468473631
 C          9.4493744710       -2.1015439907        0.3124120294
 C         10.0741566420       -3.1789860394        0.9192094924
 C          9.3459460818       -3.9534681499        1.8087967540
 C          8.0200826124       -3.6593517618        2.0891237077
 C          7.3876939460       -2.5804721417        1.4839924938
 C          8.1086751104       -1.8096093151        0.5992526280
 C          7.2547316911        0.5207069598        0.7583628948
 C          8.1805837022        0.9625828960        1.6922888201
 C          7.8709662748        1.9679121094        2.5893396457
 C          6.6061331545        2.5395235092        2.5636040127
 C          5.6720636154        2.1164894214        1.6440368622
 C          5.9822939332        1.1098924442        0.7182910286
 C          3.6177993329        2.6031942635       -0.8085305143
 C          2.3886756164        3.2117516877       -0.8213153915
 H         -0.6286852678        0.7225819653       -1.0441434484
 H         -2.8174789382       -0.3626370787       -0.8569338208
 H         -3.3531015366        0.1359945390        2.0040490720
 H         -3.7253427211       -1.4322402237        3.8461640823
 H         -5.8858782114       -2.6322259986        4.0382667586
 H         -7.6590191505       -2.2136514865        2.3798796540
 H         -8.3234591714        1.6760556844        1.9120796304
 H        -10.5368379797        2.0073150884        2.9626513488
 H        -12.3293392961        0.3627763288        2.6438801770
 H        -11.9561383074       -1.6543709072        1.2686148289
 H        -11.0435504660       -3.5764718873       -0.2464712650
 H         -9.7344686509       -5.1054022005       -1.6785476719
 H         -7.4070563493       -4.5902674490       -2.2562492552
 H         -6.3275622547       -2.5308480955       -1.4151302140
 H         -9.2164569043        0.2678727423       -1.6948260756
 H         -8.7184821444        1.8602812700       -3.5074836989
 H         -6.4645923884        2.8823135902       -3.6510733263
 H         -4.7602264614        2.3333001668       -1.9846096702
 H         -4.4865752582        3.2340130272        0.7469567051
 H         -2.2692880460        4.3255098346        0.5752676564
 H          0.6037254249        0.8635365553        0.8597928437
 H          2.7952702656       -0.2310721560        0.8580894553
 H          3.3736261231       -0.1506525683       -2.0562796516
 H          3.7913428979       -1.9428986689       -3.6709849110
 H          5.9682784430       -3.1280706320       -3.6751461331
 H          7.7099374605       -2.4747915563       -2.0598403778
 H          8.2906743313        1.4896110430       -2.0690399471
 H         10.5078385551        1.7514621408       -3.1311674491
 H         12.3332324579        0.1969062305       -2.6108390660
 H         11.9902156983       -1.6581469730       -1.0166436967
 H         11.1064791183       -3.4115814122        0.7043999545
 H          9.8171910736       -4.7975742076        2.2911776364
 H          7.4716584437       -4.2760835041        2.7859731315
 H          6.3547727126       -2.3533604958        1.7048444866
 H          9.1586243048        0.5048584401        1.7117674409
 H          8.6056909464        2.2996256521        3.3064958808
 H          6.3461967739        3.3182938217        3.2646062978
 H          4.6888043028        2.5600579560        1.6326478427
 H          4.4763257059        3.0886743783       -1.2504522823
 H          2.2561746892        4.1887136569       -1.2637420240
