  75
 
 C         -1.8807576458        6.2346241905        0.9614871824
 C         -2.1970711681        5.5428936961       -0.3721587790
 C         -1.3746498940        6.2239348329       -1.4692682713
 C         -3.6846673571        5.7161505765       -0.7100196562
 C         -1.8899233734        4.0598018073       -0.2448052186
 C         -0.9634690927        3.4067070343       -1.0504325945
 C         -0.7132617879        2.0547273601       -0.9101204036
 C         -1.3837006404        1.3183156983        0.0584210162
 N         -1.1481723666       -0.0613242633        0.1863912187
 C          0.0746657749       -0.7148215384        0.2965771704
 C          1.3203334376       -0.0684644550        0.5143027964
 C          1.3653413498        1.1892070151        1.1585655433
 C          2.5322341835        1.8479308694        1.3826019529
 C          3.7861193043        1.3019771693        0.9557743647
 C          4.9832951379        1.9824258538        1.1487803508
 C          6.1921523632        1.4295527811        0.7517587526
 C          6.2349225847        0.1691161920        0.1464321974
 C          7.4580319047       -0.4217316925       -0.2668360481
 C          7.4768876734       -1.6695447283       -0.8618023198
 C          6.3073666520       -2.3680546812       -1.0709499985
 C          5.0547334772       -1.8205211893       -0.6753062019
 C          3.8509080202       -2.4986134393       -0.8707985301
 C          2.6394353108       -1.9400076527       -0.4839579554
 C          2.5785506475       -0.6912968414        0.1292099671
 C          3.7886919389        0.0211270823        0.3425528263
 C          5.0230122892       -0.5422503066       -0.0606049699
 N         -0.1161462264       -2.0277448011        0.2487067601
 C         -1.4376245184       -2.2497073863        0.1271804158
 C         -1.9545131580       -3.6046417856        0.0255512382
 C         -1.2184976980       -4.6465456402        0.5907509583
 C         -1.6720346654       -5.9480810413        0.5087952551
 C         -2.8617144678       -6.2306536194       -0.1434642453
 C         -3.5876674350       -5.2040330169       -0.7253783081
 C         -3.1396545351       -3.8990867112       -0.6470255886
 C         -2.1167878284       -1.0281398852        0.0870798722
 C         -3.5366579270       -0.7378787255       -0.0198365049
 C         -4.4402111379       -1.3935950163        0.8187072527
 C         -5.7917426582       -1.1236282535        0.7354683785
 C         -6.2636904204       -0.1985346359       -0.1826715447
 C         -5.3749465169        0.4504922033       -1.0237289413
 C         -4.0208425040        0.1864240474       -0.9461221179
 C         -2.3137800924        1.9534388026        0.8737787151
 C         -2.5565743338        3.3024496023        0.7162679572
 H         -2.4890055626        5.8381825166        1.7696186375
 H         -0.8337007791        6.0908659725        1.2199054327
 H         -2.0734066207        7.3023754998        0.8834873530
 H         -1.5833379929        5.7886358264       -2.4437935186
 H         -1.6335587215        7.2798482007       -1.5120650584
 H         -0.3093301933        6.1481092396       -1.2643960686
 H         -4.3199379188        5.3027952684        0.0683738406
 H         -3.9226425018        6.7719814168       -0.8190781506
 H         -3.9189080330        5.2113361281       -1.6450157175
 H         -0.4212545874        3.9430190387       -1.8112022428
 H          0.0070635650        1.5642218753       -1.5483361001
 H          0.4470192804        1.6169221814        1.5321725177
 H          2.5358190563        2.7923024607        1.9068447726
 H          4.9652039146        2.9567579747        1.6166115235
 H          7.1134516366        1.9711162639        0.9106198960
 H          8.3766123722        0.1230770763       -0.1064108390
 H          8.4202987442       -2.0999361766       -1.1674267322
 H          6.3217635344       -3.3411946321       -1.5387463992
 H          3.8636183231       -3.4744799400       -1.3345006498
 H          1.7250397175       -2.4858596526       -0.6485308953
 H         -0.2925970294       -4.4096073430        1.0917744041
 H         -1.0976970818       -6.7472694429        0.9545361347
 H         -3.2187077879       -7.2483071735       -0.2052855055
 H         -4.5074086237       -5.4223741741       -1.2487961374
 H         -3.7011088299       -3.1086915053       -1.1223834845
 H         -4.0689408562       -2.1101948261        1.5367513523
 H         -6.4808590605       -1.6340674624        1.3920591724
 H         -7.3208284507        0.0125701913       -0.2445783090
 H         -5.7383575751        1.1654215877       -1.7473200461
 H         -3.3363344012        0.6833958396       -1.6180762113
 H         -2.8367646251        1.3894835039        1.6320197211
 H         -3.2827146511        3.7673912271        1.3651092262
