  69
 
 C          6.1325176947        0.5419023066        0.3971022079
 C          4.7001786254        0.5610141739        0.9615123617
 C          4.6998448569        1.1144406480        2.3983218760
 C          4.1662243226       -0.8580457500        0.9939293802
 C          4.8272323400       -1.8159314339        1.7508581691
 C          4.3678680727       -3.1152517971        1.8564279616
 C          3.1994534214       -3.4715302057        1.2083052004
 C          2.5246487841       -2.5405215349        0.4473912064
 C          3.0078448966       -1.2361260403        0.3069692075
 N          2.3209272085       -0.3258234679       -0.4845581706
 C          1.1472193306       -0.7430498617       -1.1592681699
 C          1.2159361476       -1.6411348217       -2.2271362458
 C          0.0247374845       -2.0270357416       -2.8091641188
 N         -1.1590186422       -1.5659194102       -2.4482971727
 C         -1.2330665890       -0.6811034203       -1.4568969241
 N         -2.4723159973       -0.2222448674       -1.0743049259
 C         -2.6158718222        0.9729253830       -0.3480360052
 C         -1.8997189244        2.1091215949       -0.7102628432
 C         -2.0926961030        3.2952531426       -0.0306116526
 C         -3.0232627586        3.3573989172        0.9919767619
 C         -3.7567658574        2.2341432925        1.3340990779
 C         -3.5613712958        1.0276050177        0.6793817126
 C         -4.2870127764       -0.2611890239        1.0107902532
 C         -5.4998215579       -0.0345324544        1.9126222996
 C         -3.3079739284       -1.1972577061        1.7496929899
 C         -4.6500474403       -0.9014829072       -0.3179730411
 C         -5.8682990965       -1.5122146047       -0.5689637768
 C         -6.1225887501       -2.1246723574       -1.7844686255
 C         -5.1570858327       -2.1229384286       -2.7736427312
 C         -3.9419235726       -1.5007582625       -2.5549901116
 C         -3.6818675902       -0.9004934368       -1.3303174787
 C         -0.0859699993       -0.2674955241       -0.7573465743
 C          2.7352335333        0.9929320092       -0.6099145212
 C          2.0523375671        1.8582343877       -1.4699381856
 C          2.4233358506        3.1800472490       -1.5941348014
 C          3.4983080103        3.6636912401       -0.8710539249
 C          4.2043319050        2.7998097386       -0.0551861738
 C          3.8523637675        1.4643945732        0.0871840375
 H          6.5546873332        1.5427646355        0.3748144982
 H          6.1243387785        0.1504179894       -0.6185270875
 H          6.7801681137       -0.0868763955        1.0017213825
 H          5.0880961968        2.1288557855        2.4240881236
 H          3.6843184724        1.1251264559        2.7901474047
 H          5.3124116385        0.4992483545        3.0515704589
 H          5.7282428486       -1.5441374378        2.2797673134
 H          4.9098434851       -3.8362709345        2.4491042980
 H          2.8073396763       -4.4739086518        1.2949675808
 H          1.6063586495       -2.8276407053       -0.0409842802
 H          2.1644615185       -2.0241564411       -2.5663339092
 H          0.0068916062       -2.7385569903       -3.6243278426
 H         -1.2001668589        2.0599460217       -1.5310468360
 H         -1.5267913485        4.1711135835       -0.3095668406
 H         -3.1842602438        4.2839116782        1.5222024039
 H         -4.4827193475        2.3110908924        2.1271219090
 H         -5.1876702176        0.4110505208        2.8540002684
 H         -6.2259420946        0.6185368637        1.4337504676
 H         -5.9758430132       -0.9829252345        2.1481479178
 H         -2.9885428219       -0.7387437070        2.6835951418
 H         -2.4261110445       -1.4044516715        1.1492769743
 H         -3.7982414747       -2.1425404905        1.9726197052
 H         -6.6361781111       -1.5251164759        0.1874024608
 H         -7.0765897452       -2.6014925744       -1.9537709236
 H         -5.3517682711       -2.5943791865       -3.7252355699
 H         -3.1876330514       -1.4840672383       -3.3217874289
 H         -0.1583002639        0.4024023902        0.0851617530
 H          1.2284790577        1.4852319400       -2.0581769684
 H          1.8741900301        3.8283288332       -2.2608392527
 H          3.7954199079        4.6980729538       -0.9527228763
 H          5.0576443099        3.1830046206        0.4837632256
