  111
 
 N          0.1219619152        4.0052686149       -0.0722994253
 C          0.0993885162        2.8482340559       -0.0484812182
 C          0.0565676782        1.4558502105       -0.0295543619
 C          1.2652225125        0.6902872785       -0.0319552027
 C          2.5621478752        1.3530547594        0.0040997570
 C          2.8224466458        2.3889603077        0.9089177077
 C          4.0523354922        3.0022637435        0.9500901636
 C          5.0717505153        2.6097846627        0.0755338501
 N          6.3187738502        3.2331475817        0.1124423437
 C          6.4083470656        4.6026525205        0.3800710752
 C          7.4662853041        5.1064466294        1.1404506231
 C          7.5527138501        6.4605704379        1.3974587877
 C          6.5901396210        7.3308420538        0.9087885431
 C          5.5350657281        6.8350172151        0.1580070793
 C          5.4407853052        5.4833792894       -0.1093214674
 C          7.4789160416        2.4872523706       -0.1187236115
 C          8.5506623906        3.0469749561       -0.8182258117
 C          9.6955725078        2.3076004747       -1.0410776019
 C          9.7907474327        1.0042838301       -0.5774002277
 C          8.7277561278        0.4426605015        0.1136082020
 C          7.5793677248        1.1738431067        0.3462262754
 C          4.8164323108        1.5807161156       -0.8372341564
 C          3.5873624543        0.9653991091       -0.8676705842
 C          1.1774904421       -0.7054537543       -0.0417225862
 C          2.3625988450       -1.4357845765        0.1689849964
 N          3.3269320983       -2.0152561642        0.4171771578
 C         -0.0614226868       -1.3919662712       -0.0445538121
 C         -0.1259488988       -2.8325355030       -0.0450990374
 C         -1.0798039638       -3.5243656150        0.7247638817
 C         -1.1368017455       -4.8950498995        0.7280945666
 C         -0.2450222021       -5.6480668685       -0.0476860633
 N         -0.3003671570       -7.0423097779       -0.0456104353
 C         -1.5364462003       -7.6883659069        0.0218304654
 C         -2.6523404697       -7.1465841076       -0.6223403625
 C         -3.8737172356       -7.7862915689       -0.5491481760
 C         -4.0049617361       -8.9718058520        0.1586303232
 C         -2.9011740630       -9.5131583201        0.8006255663
 C         -1.6755690607       -8.8805362599        0.7381760715
 C          0.8818156006       -7.7828974018       -0.1086561233
 C          2.0365369253       -7.3251428640        0.5323718269
 C          3.2046429915       -8.0579502434        0.4634924277
 C          3.2434308033       -9.2544826941       -0.2368223687
 C          2.1008435129       -9.7128324476       -0.8755643932
 C          0.9279416391       -8.9866771559       -0.8175441696
 C          0.7040070202       -4.9718399317       -0.8262210448
 C          0.7615328689       -3.6013600320       -0.8218102238
 C         -1.2544970538       -0.5933393785       -0.0361936083
 C         -2.5097724376       -1.1884033634       -0.2014508531
 N         -3.5520895980       -1.6511237561       -0.3871909194
 C         -1.1909819486        0.8010712309       -0.0270397610
 C         -2.4345608523        1.5830000698       -0.0336725173
 C         -2.6854347227        2.5227030853       -1.0326919097
 C         -3.8623483942        3.2376910626       -1.0482637569
 C         -4.8230991673        3.0408430058       -0.0526600048
 N         -6.0161996210        3.7629493238       -0.0662352180
 C         -7.2071232495        3.1518966475        0.3416434914
 C         -7.4485277856        1.8080913690        0.0475586725
 C         -8.6266299928        1.2112408551        0.4522450324
 C         -9.5803657445        1.9389508144        1.1473868966
 C         -9.3454503777        3.2735064107        1.4406456806
 C         -8.1688331447        3.8795295724        1.0456125383
 C         -6.0217969183        5.0954499299       -0.4933428624
 C         -4.9516260185        5.9389854627       -0.1875026174
 C         -4.9626027896        7.2536873693       -0.6109458813
 C         -6.0356116865        7.7492288551       -1.3357942862
 C         -7.1004913910        6.9156769159       -1.6413482264
 C         -7.0977560195        5.5977740189       -1.2280589673
 C         -4.5697819042        2.1068124780        0.9554541414
 C         -3.3958742011        1.3870405196        0.9577550512
 H          2.0568043644        2.6876180345        1.6098239029
 H          4.2414572712        3.7795642542        1.6753798193
 H          8.2071912047        4.4273929073        1.5354805476
 H          8.3722239506        6.8377111688        1.9908710655
 H          6.6604226701        8.3883362857        1.1128856035
 H          4.7824981093        7.5053502064       -0.2296799807
 H          4.6243916649        5.1008871317       -0.7042111356
 H          8.4698721019        4.0561974740       -1.1939295285
 H         10.5153977198        2.7488453627       -1.5880992172
 H         10.6866515403        0.4291223383       -0.7547791985
 H          8.7948596634       -0.5700765089        0.4822150693
 H          6.7570705723        0.7386984717        0.8951324732
 H          5.5855660238        1.2828075981       -1.5342229777
 H          3.3996367813        0.1907712844       -1.5972621494
 H         -1.7539802450       -2.9672187067        1.3582464087
 H         -1.8565197403       -5.4027828383        1.3532916857
 H         -2.5487481531       -6.2306018702       -1.1852365507
 H         -4.7267082431       -7.3592768992       -1.0551586983
 H         -4.9614454847       -9.4689330804        0.2112507705
 H         -2.9979141392      -10.4303602313        1.3621551483
 H         -0.8214674583       -9.2925360330        1.2547242038
 H          2.0042907784       -6.4004032789        1.0894683720
 H          4.0883584840       -7.6950393216        0.9668170443
 H          4.1585433017       -9.8245432814       -0.2857041517
 H          2.1262142900      -10.6384151896       -1.4311155345
 H          0.0441402437       -9.3348724468       -1.3311389998
 H          1.3764439765       -5.5376381649       -1.4542200786
 H          1.4762154852       -3.1016188898       -1.4591067273
 H         -1.9595252535        2.6718609901       -1.8186798031
 H         -4.0532186365        3.9433219550       -1.8429485588
 H         -6.7123321461        1.2419120259       -0.5041603235
 H         -8.8024578552        0.1725499697        0.2150205487
 H        -10.5003357796        1.4684263560        1.4592093473
 H        -10.0798221129        3.8446302208        1.9888379489
 H         -7.9794899662        4.9146073985        1.2883133107
 H         -4.1201227876        5.5583497309        0.3873804496
 H         -4.1306437684        7.8965229886       -0.3648239917
 H         -6.0406174453        8.7782256265       -1.6615147614
 H         -7.9354760744        7.2918018433       -2.2134964778
 H         -7.9198456538        4.9445961408       -1.4803754360
 H         -5.2951216037        1.9584987965        1.7414290065
 H         -3.2061157144        0.6766789556        1.7497910630
