  53
 
 O          4.1527699494       -1.0628268351        1.9633421527
 C          3.3392555572       -0.5993366912        1.1585521380
 C          1.9052563407       -0.7112750663        1.3105689435
 C          1.3741386318       -1.3563562822        2.4415890089
 C          0.0114759947       -1.4577826415        2.6050600700
 C         -0.8587359625       -0.9378050035        1.6540889032
 C         -0.3663075801       -0.3023263304        0.5044637974
 C         -1.2019583100        0.2626434340       -0.4951457443
 N         -2.6182041761        0.1502592138       -0.3884019295
 C         -3.3214618239        1.2859259686       -0.0495830641
 C         -2.6234726755        2.4631578516        0.2769379382
 C         -3.2848326720        3.6290427644        0.5848735276
 C         -4.6770356153        3.6732237801        0.5933776143
 C         -5.3876168929        2.5253282457        0.3214681013
 C         -4.7275562062        1.3373907920        0.0120061397
 S         -5.7454228216       -0.0591896856       -0.2512768111
 C         -4.5756849243       -1.3139249209       -0.5898697918
 C         -5.0983469128       -2.5816912663       -0.8419805798
 C         -4.2684044036       -3.6308625576       -1.1677083780
 C         -2.8972955133       -3.4066523373       -1.2690119876
 C         -2.3717281023       -2.1596673411       -1.0232894357
 C         -3.1895330735       -1.0777975362       -0.6507032497
 C         -0.6654726087        0.9363791921       -1.5996244045
 C          0.6918109203        1.0377983419       -1.7590878726
 C          1.5656416612        0.4853969496       -0.7972846999
 C          1.0427199480       -0.1777928710        0.3327425564
 C          2.9904641824        0.6159399644       -0.9760736424
 O          3.5148498497        1.1932685541       -1.9349524507
 N          3.7868243162        0.0574527666        0.0192804842
 C          5.2038383297        0.1745354158       -0.1441782774
 C          5.8507439325       -0.5803848045       -1.1101842348
 C          7.2209663744       -0.4652931564       -1.2646517662
 C          7.9431817429        0.3930173711       -0.4529359947
 C          7.2929418291        1.1431224244        0.5123128961
 C          5.9218217203        1.0397471055        0.6666781122
 H          2.0668230841       -1.7586455299        3.1651274326
 H         -0.3903231822       -1.9507653141        3.4780999831
 H         -1.9234360744       -1.0294168916        1.8073338087
 H         -1.5462465864        2.4416492828        0.2907794747
 H         -2.7133334898        4.5110155346        0.8274146069
 H         -5.1942903936        4.5893584217        0.8282128681
 H         -6.4662092990        2.5221346327        0.3481849328
 H         -6.1668469471       -2.7185928904       -0.7796932994
 H         -4.6784436729       -4.6096878733       -1.3568920561
 H         -2.2358321723       -4.2116871768       -1.5477682145
 H         -1.3105393155       -2.0016989085       -1.1191911684
 H         -1.3371125427        1.3461371547       -2.3396556995
 H          1.1278993552        1.5311063126       -2.6133810747
 H          5.2767693864       -1.2473015795       -1.7374189027
 H          7.7239726420       -1.0519993977       -2.0192127925
 H          9.0131159888        0.4774567079       -0.5724465387
 H          7.8521708848        1.8139930484        1.1477536176
 H          5.4033868023        1.6190664343        1.4172551571
