  68
 
 C        -10.1092543951       -1.0803630209        1.8362636590
 C         -9.3653850876       -2.0062118728        2.5632293172
 C         -7.9893225372       -2.0596186172        2.4603210012
 C         -7.3563678072       -1.1625527618        1.6086864373
 C         -8.1240170791       -0.2311450050        0.8794675396
 C         -9.5012107451       -0.1767326737        0.9817756348
 O         -7.3371308275        0.5632948457        0.0993616826
 C         -6.0609541212        0.1546575804        0.3119244564
 C         -5.9926341650       -0.9075117833        1.2353023434
 C         -4.7640473864       -1.4563755623        1.6089649008
 C         -3.6011079546       -0.9731851017        1.0494754824
 C         -3.6762524817        0.0592193083        0.1121662802
 C         -4.9038977173        0.6609913073       -0.2587823577
 C         -4.5968138966        1.7166858548       -1.1784851407
 C         -5.3689834283        2.6486182331       -1.8570729238
 C         -4.7287771203        3.5532151359       -2.6827692347
 C         -3.3434143213        3.5371266864       -2.8324255649
 C         -2.5560309835        2.6154361753       -2.1675099155
 C         -3.1925335267        1.7085737956       -1.3347513660
 N         -2.6520040142        0.6987100684       -0.5572829507
 C         -1.3125804643        0.3439505945       -0.5543792576
 C         -0.9095303147       -0.9696834858       -0.6314788590
 N          0.3774940455       -1.3294734043       -0.5741476221
 C          1.3117767524       -0.3418499566       -0.5642634471
 N          2.6514176173       -0.6956493404       -0.5774624658
 C          3.1926665222       -1.6829743466       -1.3828869971
 C          2.5564759245       -2.5687024626       -2.2383037258
 C          3.3445885152       -3.4702803493       -2.9294196796
 C          4.7303168144       -3.4869872047       -2.7832003486
 C          5.3701897216       -2.6033491272       -1.9348602524
 C          4.5973077858       -1.6918494209       -1.2298297017
 C          4.9039129949       -0.6603909956       -0.2828551725
 C          6.0610108857       -0.1660549373        0.2982405031
 O          7.3378546968       -0.5648116312        0.0713819180
 C          8.1244995256        0.2113231054        0.8699566399
 C          9.5021876604        0.1590414524        0.9665990948
 C         10.1098253123        1.0419226320        1.8427939380
 C          9.3651012094        1.9456308614        2.5962649942
 C          7.9885516806        1.9969324337        2.4990006005
 C          7.3560086552        1.1205010484        1.6258463534
 C          5.9920242357        0.8709983221        1.2496979024
 C          4.7628649686        1.4060449451        1.6410982048
 C          3.5998968652        0.9347098056        1.0716778832
 C          3.6756137624       -0.0719243860        0.1067859300
 C          0.9086903498        0.9733642439       -0.6066090364
 N         -0.3782301584        1.3314856738       -0.5389311812
 H        -11.1835995878       -1.0664635463        1.9406900111
 H         -9.8780790064       -2.6940947117        3.2188997968
 H         -7.4147823868       -2.7781674585        3.0244265464
 H        -10.0711592491        0.5425437278        0.4158730161
 H         -4.7307053574       -2.2513406957        2.3371761701
 H         -2.6445673461       -1.3728670672        1.3474118106
 H         -6.4407895352        2.6585151466       -1.7331294181
 H         -5.3083024383        4.2868442972       -3.2230504098
 H         -2.8747735568        4.2583654750       -3.4851888977
 H         -1.4835342664        2.6031688579       -2.2814431464
 H         -1.6325593172       -1.7628669190       -0.7345137638
 H          1.4836949736       -2.5559457148       -2.3495173655
 H          2.8762556643       -4.1748574904       -3.6003471329
 H          5.3104089535       -4.2043890142       -3.3442624402
 H          6.4422866721       -2.6139592956       -1.8135331446
 H         10.0728255188       -0.5429879818        0.3801073324
 H         11.1845412461        1.0290859951        1.9434726832
 H          9.8775059440        2.6177607218        3.2682945288
 H          7.4133258139        2.6983280971        3.0836208834
 H          4.7291579432        2.1811130418        2.3904293618
 H          2.6429717905        1.3235343032        1.3824713187
 H          1.6316939850        1.7689526408       -0.6892679409
