  53
 
 C          2.1472852001        3.8954060767       -0.8023208476
 C          2.0635389528        3.5190390836        0.5315782680
 C          1.8503680681        2.1998424498        0.8666005504
 C          1.7442127404        1.2281427489       -0.1354886968
 P          1.2754636657       -0.4594725521        0.3229327978
 C          2.8611554213       -1.3346696966        0.5929878756
 C          2.8470105811       -2.7286209390        0.5964257459
 C          4.0042566690       -3.4300957985        0.8665105676
 C          5.1732326303       -2.7476344729        1.1741501959
 C          5.1798070930       -1.3617529027        1.2089480518
 C          4.0262972387       -0.6518994431        0.9346233409
 C          0.5510007306       -1.2742833739       -1.0917622799
 C          0.9920537133       -1.8746339196       -2.2366461523
 S         -0.3509453672       -2.2745392039       -3.2842997720
 C         -1.5025371770       -1.6219696252       -2.1400615097
 C         -0.8639348523       -1.1308537472       -1.0369510384
 P         -1.2998255162       -0.1981163965        0.4226497508
 C         -1.4490098812        1.5532470552       -0.0113035315
 C         -1.5632293318        1.9537692650       -1.3458926268
 C         -1.5202299204        3.2932085988       -1.6662915527
 C         -1.3492278607        4.2499509179       -0.6736895192
 C         -1.2237888803        3.8562376056        0.6519503269
 C         -1.2593693283        2.5195887445        0.9835207365
 C         -3.0061747230       -0.7350762202        0.8146951759
 C         -3.9770185896        0.1677648325        1.2418727194
 C         -5.2288915495       -0.2933247335        1.6024778224
 C         -5.5108257792       -1.6502162108        1.5685466654
 C         -4.5334829786       -2.5541169220        1.1752595844
 C         -3.2793829263       -2.1020037782        0.8186612897
 C          1.8170013839        1.6138199867       -1.4772375605
 C          2.0245801892        2.9370903576       -1.8005593235
 H          2.3050287653        4.9308041322       -1.0634783494
 H          2.1590597525        4.2638160930        1.3085992461
 H          1.7758167576        1.8977572000        1.9029677765
 H          1.9265680385       -3.2476416810        0.3635441071
 H          3.9990280195       -4.5102122009        0.8439520061
 H          6.0762805732       -3.2972635662        1.3944872052
 H          6.0896353693       -0.8324403678        1.4529006826
 H          4.0278950277        0.4290328274        0.9513444258
 H          1.9877973563       -2.1303284511       -2.5377896781
 H         -2.5493437544       -1.6705048397       -2.3623598051
 H         -1.6914641469        1.2064769492       -2.1167173833
 H         -1.6177998305        3.5999258523       -2.6977616971
 H         -1.3117919029        5.2970763273       -0.9330026439
 H         -1.0911265872        4.5998588710        1.4245869476
 H         -1.1546496393        2.2021951330        2.0126366829
 H         -3.7540254496        1.2255189169        1.2576397684
 H         -5.9896118174        0.4083257442        1.9130970687
 H         -6.4893233989       -2.0054579411        1.8557569843
 H         -4.7527253380       -3.6117759382        1.1540597419
 H         -2.5053074177       -2.7960584747        0.5188637674
 H          1.7163706288        0.8665697744       -2.2521720013
 H          2.0896017196        3.2303401362       -2.8384864560
