  57
 
 O          4.4426499650        2.1435279396        0.8526998357
 C          4.8682382339        1.0610751098        0.5031224873
 C          6.2789743745        0.9018304128        0.0672299429
 C          6.9705694743        2.0489754330       -0.3307640625
 C          8.2784731501        1.9661160286       -0.7693277689
 C          8.9224204051        0.7383122326       -0.8172067524
 C          8.2523210486       -0.4055153329       -0.4120784767
 C          6.9446406599       -0.3173330474        0.0204677018
 S          6.1444849499       -1.7921631503        0.6415968184
 O          6.5241330072       -2.9230367360       -0.1596181208
 O          6.3874068094       -1.8647501868        2.0573605136
 C          4.4117807039       -1.4342898748        0.3955212477
 C          3.5194787179       -2.4823555637        0.2855035654
 C          2.1629897027       -2.2301956370        0.1892232780
 C          1.6827769229       -0.9189064200        0.2210446518
 C          0.2431802089       -0.6427079766        0.1480826758
 C         -0.5907159790       -1.3918979247       -0.6813556742
 C         -1.9426762789       -1.1313866292       -0.7504885705
 C         -2.5073960635       -0.1181285335        0.0246042225
 N         -3.8813351269        0.1416780644       -0.0359708724
 C         -4.7855454139       -0.9162829895       -0.1649642003
 C         -4.5465226042       -2.1328106127        0.4769383781
 C         -5.4352509262       -3.1806973908        0.3483741423
 C         -6.5764445176       -3.0165149405       -0.4197503809
 Br        -7.8077169785       -4.4599651244       -0.5942478393
 C         -6.8341080736       -1.8167910108       -1.0628044566
 C         -5.9392954443       -0.7735267796       -0.9379118773
 C         -4.3467210036        1.4576252864        0.0392535845
 C         -3.6288501132        2.4962857965       -0.5563737482
 C         -4.0831115225        3.7971899239       -0.4801153213
 C         -5.2660527775        4.0682460623        0.1880218495
 Br        -5.8987762451        5.8623525854        0.2889994802
 C         -5.9951938283        3.0519436109        0.7835595022
 C         -5.5337688024        1.7532422857        0.7118328430
 C         -1.6788304190        0.6308669840        0.8607512180
 C         -0.3254235125        0.3754437322        0.9133751119
 C          2.5974685811        0.1241341942        0.3313751492
 C          3.9677181145       -0.1171326490        0.4146162265
 H          6.4553445529        2.9969581045       -0.2863044206
 H          8.7999040735        2.8610677606       -1.0735545693
 H          9.9431954026        0.6727291420       -1.1614447637
 H          8.7226023204       -1.3762083319       -0.4273578119
 H          3.9092896871       -3.4881859657        0.2778570672
 H          1.4685752586       -3.0534894593        0.1180400699
 H         -0.1696452354       -2.1652882923       -1.3058874004
 H         -2.5717969146       -1.7079483267       -1.4123547312
 H         -3.6613454195       -2.2515224040        1.0832628873
 H         -5.2479913332       -4.1175533310        0.8496872756
 H         -7.7228850589       -1.7022360339       -1.6636299860
 H         -6.1301739754        0.1593278419       -1.4466149948
 H         -2.7131352199        2.2781658015       -1.0846841885
 H         -3.5262115505        4.5959837601       -0.9446781621
 H         -6.9115949410        3.2754418575        1.3072733945
 H         -6.0924415766        0.9598904081        1.1849946150
 H         -2.1066342215        1.4091267255        1.4750266471
 H          0.2958295643        0.9501909172        1.5830045210
 H          2.2631461883        1.1510926540        0.3367852465
