  77
 
 C         -4.5536545593        0.4649823516        1.7506738449
 C         -5.7485188132       -0.0026766984        0.9122104271
 C         -5.8987654685       -1.5253221541        1.0006188531
 C         -7.0155175170        0.6841006241        1.3727582054
 C         -7.6280978358        0.6326229700        2.6067536152
 C         -8.7989427415        1.3533680524        2.8042401822
 C         -9.3476206955        2.1148812068        1.7812792697
 C         -8.7393095655        2.1729409302        0.5389514976
 C         -7.5696926676        1.4540587122        0.3391652600
 C         -6.7249612312        1.3240625460       -0.8340963865
 C         -6.8582244598        1.8920010762       -2.0920233071
 C         -5.9041444362        1.6001499765       -3.0511122325
 C         -4.8439294875        0.7601962859       -2.7541563535
 C         -4.6989319728        0.1830135561       -1.4896202597
 C         -3.5352058651       -0.7027476756       -1.2644964901
 C         -3.6163546556       -2.0672341782       -1.5584538700
 C         -2.5043460849       -2.8715617164       -1.3712865314
 C         -1.3127875130       -2.3376289296       -0.9000630574
 S          0.0198321293       -3.4656211469       -0.7236736963
 C          1.3317595734       -2.4746067185       -0.1102756548
 C          2.5244015168       -3.1356591248        0.1499812004
 C          3.6221756072       -2.4494268870        0.6421933227
 C          3.5257880202       -1.0741642390        0.8746358257
 C          4.6746953636       -0.3271313921        1.4323986971
 C          4.8004208294       -0.2669201927        2.8229740942
 C          5.8474291235        0.4076969673        3.4282904770
 C          6.8065168988        1.0471409547        2.6624349293
 C          6.6917148139        0.9939536048        1.2815853969
 C          5.6305010859        0.3118875339        0.6599254015
 C          5.7483738297        0.4138205894       -0.8484643833
 C          4.5580566415        1.1595384532       -1.4626676300
 C          5.9102176166       -0.9618324828       -1.5040378176
 C          7.0122202217        1.2317861492       -0.9999031777
 C          7.6358242930        1.6551408021       -2.1542673054
 C          8.7943247881        2.4143096395       -2.0501042214
 C          9.3201132446        2.7448626696       -0.8084894707
 C          8.7016033341        2.3230831887        0.3561422774
 C          7.5446705375        1.5642140679        0.2548032832
 C          2.3290923250       -0.4221802429        0.6329475656
 C          1.1984685760       -1.0893942642        0.1241947722
 C         -0.0004511866       -0.3191493888       -0.1098823599
 O         -0.0056749381        0.9345458840        0.1252875780
 C         -1.1952670482       -0.9630639518       -0.6030400331
 C         -2.3397500045       -0.1704453546       -0.8136021436
 C         -5.6497488944        0.4719845785       -0.5246116062
 H         -4.4371807822        1.5447096818        1.6764087445
 H         -3.6366483118       -0.0062628536        1.4055964644
 H         -4.7062492212        0.2046126998        2.7954579507
 H         -4.9904075158       -2.0140874583        0.6584542737
 H         -6.0868559845       -1.8210560315        2.0299132599
 H         -6.7325986679       -1.8579907650        0.3855518407
 H         -7.2115452972        0.0448688840        3.4116979103
 H         -9.2893244090        1.3214413947        3.7664690047
 H        -10.2588392623        2.6677709626        1.9584619574
 H         -9.1668902294        2.7662203828       -0.2555043735
 H         -7.6851166074        2.5482158592       -2.3170402878
 H         -5.9817576002        2.0288271860       -4.0396197800
 H         -4.1034824308        0.5417805626       -3.5104777272
 H         -4.5371069487       -2.4876521069       -1.9303008992
 H         -2.5497363085       -3.9270480466       -1.5946842523
 H          2.5825001571       -4.1979905734       -0.0342872446
 H          4.5439821563       -2.9700900538        0.8470558313
 H          4.0559630886       -0.7605255751        3.4313776896
 H          5.9104384660        0.4327462032        4.5063917406
 H          7.6238730122        1.5758729497        3.1287575229
 H          4.4308040311        2.1297844293       -0.9858473168
 H          3.6418365604        0.5884430673       -1.3346697478
 H          4.7242327327        1.3159232727       -2.5259445759
 H          6.1155570767       -0.8456719399       -2.5654763620
 H          6.7368532181       -1.5027885435       -1.0476704780
 H          4.9998693547       -1.5439933552       -1.3872064674
 H          7.2362589895        1.4073749341       -3.1268242525
 H          9.2924673556        2.7530692998       -2.9470212280
 H         10.2214355632        3.3380755728       -0.7524331991
 H          9.1112392338        2.5814328133        1.3212317164
 H          2.2276742335        0.6355375127        0.8289941902
 H         -2.2502220254        0.8856026892       -0.6032397045
