  99
 
 C         -7.4177073386       -2.5709853068        1.6318991800
 C         -6.0541719769       -2.0012112289        1.3801785897
 C         -5.1911904447       -1.7409976655        2.4352900257
 C         -3.9302728214       -1.2056267092        2.2286386363
 C         -3.0740431174       -0.9138871823        3.4243540724
 C         -3.4913077824       -0.9042002793        0.9288490431
 B         -2.0417016928       -0.2784754720        0.7180748025
 C         -1.9099647594        1.0230605133       -0.0511318337
 C         -3.0206755746        1.9049606904       -0.2078257290
 C         -2.9195510495        3.1710685740       -0.6989746871
 C         -1.6627869716        3.6604677851       -1.1170960303
 C         -1.5032091035        5.0209661207       -1.6878462047
 F         -0.4361152007        5.6788404810       -1.1759177175
 F         -2.5627480206        5.8192369777       -1.4892215595
 F         -1.2930359787        5.0169954825       -3.0302325208
 C         -0.5537675422        2.8210305626       -1.0557345607
 C         -0.6559101738        1.5320363923       -0.5734688686
 N          0.5085827291        0.7597202131       -0.5659051532
 C          0.6846347879       -0.4646357442       -1.1765117313
 C         -0.1898096007       -1.1991797811       -1.9609893536
 C          0.2564362740       -2.3992349384       -2.4762263765
 C          1.5479607419       -2.8905583130       -2.2489623725
 C          1.9360161669       -4.2380317075       -2.8370938578
 C          1.8122735832       -4.1765791490       -4.3662362249
 C          3.3723290905       -4.6410078552       -2.4917459408
 C          0.9940042358       -5.3158458993       -2.2815804036
 C          2.4320474728       -2.1173085757       -1.5069755726
 C          2.0089784191       -0.9092896625       -0.9798742139
 C          2.6751312339        0.1265405590       -0.2328783941
 C          3.9626128441        0.2588923529        0.2562932950
 C          4.3172270277        1.4043377838        0.9598800664
 C          5.7049881135        1.6059540706        1.5464185838
 C          6.3292404558        2.8726833060        0.9438430069
 C          6.6440540056        0.4310256354        1.2589157160
 C          5.5842648159        1.7590358321        3.0699735794
 C          3.3535557732        2.4062504158        1.1393513472
 C          2.0640238330        2.3009778062        0.6592989506
 C          1.7168248294        1.1452563739       -0.0284614497
 C         -0.7985646968       -0.9952365330        1.3435608225
 C         -0.5005488829       -2.3510679908        1.0600509683
 C         -1.5166124369       -3.2244335225        0.3938547643
 C          0.7406095276       -2.8682009382        1.3631201553
 C          1.7140880004       -2.1039640719        2.0057952244
 C          3.0635449338       -2.6763537066        2.2998478505
 C          1.3733860291       -0.8226266618        2.4143193967
 C          0.1346534657       -0.2749778670        2.1280583358
 C         -0.1886825427        1.0673684371        2.7116418568
 C         -4.3595613500       -1.1654599720       -0.1393567872
 C         -3.9813205819       -0.9492779948       -1.5771268728
 C         -5.6187432127       -1.7041082400        0.1017343724
 H         -8.0627496404       -1.8159093006        2.0821537771
 H         -7.8772438551       -2.9048074971        0.7047486499
 H         -7.3611687396       -3.4132527949        2.3196093833
 H         -5.5162320009       -1.9503178731        3.4455872459
 H         -3.5726552937       -1.2211869624        4.3409349852
 H         -2.8662093340        0.1530318275        3.4824086703
 H         -2.1220648997       -1.4370404695        3.3532187032
 H         -3.9835685627        1.5463309189        0.1250414799
 H         -3.7853317475        3.8110688423       -0.7678462634
 H          0.3935879419        3.1653092334       -1.4467950620
 H         -1.1831370792       -0.8390789263       -2.1699747236
 H         -0.4266346219       -2.9724788781       -3.0839014093
 H          0.7916669622       -3.9692718025       -4.6747204613
 H          2.4541261290       -3.3932643460       -4.7637708570
 H          2.1138121857       -5.1256443918       -4.8042186522
 H          3.5111409059       -4.7122757852       -1.4153004501
 H          3.5881622766       -5.6166564746       -2.9223966125
 H          4.0878449099       -3.9304105186       -2.8986785774
 H          1.0755827873       -5.3619363065       -1.1976215756
 H         -0.0414700900       -5.1101603216       -2.5370715758
 H          1.2583627207       -6.2897769215       -2.6879871871
 H          3.4483033480       -2.4305333110       -1.3362249162
 H          4.6673401542       -0.5370623298        0.0842675614
 H          7.3328181856        3.0178530244        1.3377094863
 H          5.7423687009        3.7563570762        1.1769041746
 H          6.3927290169        2.7814654037       -0.1384038559
 H          7.6186349974        0.6314208411        1.6991636295
 H          6.2653419883       -0.4917181280        1.6929068797
 H          6.7819691905        0.2928456532        0.1891085169
 H          5.1270983206        0.8714512483        3.5033006676
 H          4.9770079054        2.6194382041        3.3364274473
 H          6.5697715330        1.8884691325        3.5118658648
 H          3.6183740753        3.3040805286        1.6760268965
 H          1.3516072471        3.0957516346        0.8174028092
 H         -1.0831432140       -4.1843445270        0.1235200158
 H         -2.3616477518       -3.3972530742        1.0593008854
 H         -1.8987829901       -2.7435271732       -0.5022971656
 H          0.9733704045       -3.8881727146        1.0893674766
 H          3.4043361070       -3.2944342670        1.4714025654
 H          3.0237603379       -3.3051092656        3.1906688160
 H          3.7867340252       -1.8831402538        2.4748017708
 H          2.0923310674       -0.2351842148        2.9694066038
 H         -0.9498524086        1.5864633441        2.1368304321
 H         -0.5655975519        0.9335588252        3.7270394314
 H          0.7049421423        1.6847232437        2.7731911063
 H         -4.8578359856       -0.6814832547       -2.1637233756
 H         -3.5715634435       -1.8700910046       -1.9969790360
 H         -3.2430196609       -0.1608383174       -1.6796910658
 H         -6.2669106928       -1.9060883577       -0.7404326778
