  82
 
 C         -7.1399906756       -5.2001172431        0.6869695923
 C         -5.7999575844       -5.0746302833        1.0159771532
 C         -5.1507391758       -3.8694550577        0.8335465605
 C         -5.8352899530       -2.7674384395        0.3224449537
 C         -5.1145323750       -1.5166873886        0.1403119802
 N         -3.7665867692       -1.5172822324       -0.0512295388
 C         -3.3984913934       -0.2719326974       -0.2211399570
 C         -2.0156837754        0.1317526920       -0.4029475347
 C         -1.1482917638       -0.7519774857       -1.0401611464
 C          0.1864972102       -0.4446534818       -1.2165441887
 C          0.6895699377        0.7643321985       -0.7436142107
 O          1.9804947700        1.1703873298       -0.8519396231
 C          2.9307539245        0.2859325880       -1.4127893031
 C          4.3107006563        0.9200927083       -1.2674146060
 C          4.7218104796        1.1205462072        0.1915135116
 C          5.0277837399       -0.1931846660        0.9259366933
 C          6.1695715292       -0.9355269614        0.2917739407
 C          5.9688298503       -2.0308988479       -0.5327444087
 C          7.0238088212       -2.7007822301       -1.1483806781
 C          8.3299439539       -2.2988167917       -0.9602298025
 C          8.5711991346       -1.2071529732       -0.1353612677
 C          7.4902715270       -0.5343408569        0.4798720749
 N          7.9860331594        0.4988916287        1.2374538900
 C          9.3536770868        0.5154533687        1.1436269191
 C         10.2711985436        1.3685454666        1.7376237977
 C         11.6100678472        1.1603601493        1.4675542195
 C         12.0290857189        0.1305605496        0.6272652072
 C         11.1191796862       -0.7211377620        0.0331428782
 C          9.7670089204       -0.5333107607        0.2890760730
 C         -0.1741164530        1.6474178466       -0.0912733930
 C         -1.5040163046        1.3369971149        0.0805981319
 N         -4.4779074327        0.5723238504       -0.1521882494
 C         -4.4919523513        1.9657244192       -0.3352393850
 C         -3.9361545058        2.5158864427       -1.4858074622
 C         -3.9601089522        3.8853498188       -1.6706352358
 C         -4.5439384933        4.7076563762       -0.7207139501
 C         -5.1002599306        4.1578239480        0.4220293303
 C         -5.0748288258        2.7897022619        0.6211807024
 C         -5.5841034699       -0.2146857232        0.0920049494
 C         -6.9230692332        0.3335208146        0.2607038186
 C         -7.4503426352        1.2441236420       -0.6531677387
 C         -8.7187822761        1.7619438735       -0.4686671315
 C         -9.4767637599        1.3797171951        0.6251801409
 C         -8.9622009142        0.4696469771        1.5349175149
 C         -7.6947232148       -0.0496865237        1.3575328788
 C         -7.1775693282       -2.9068812556       -0.0248830207
 C         -7.8223821063       -4.1150795736        0.1616546030
 H         -7.6494035234       -6.1417424280        0.8321609812
 H         -5.2610496068       -5.9212765572        1.4167567053
 H         -4.1063836723       -3.7563804865        1.0801985395
 H         -1.5415345079       -1.6914446876       -1.3956435487
 H          0.8235409794       -1.1513131149       -1.7247017017
 H          2.7097066903        0.1193157416       -2.4765240302
 H          2.8963530910       -0.6810420979       -0.8963155130
 H          4.2894903679        1.8917137304       -1.7637410825
 H          5.0408211904        0.2880215438       -1.7756096051
 H          3.9180118270        1.6441506381        0.7117553633
 H          5.6098358602        1.7561750765        0.2100808949
 H          4.1396203732       -0.8259648433        0.9320079194
 H          5.2699994372        0.0366978071        1.9674842811
 H          4.9599157410       -2.3808155675       -0.7000911923
 H          6.8081344976       -3.5489460122       -1.7812307321
 H          9.1470161349       -2.8182556117       -1.4370559945
 H          7.4372111460        1.1245172463        1.8006463942
 H          9.9494691094        2.1673562282        2.3899447756
 H         12.3482786086        1.8083241651        1.9168814369
 H         13.0849834286        0.0006069632        0.4414419904
 H         11.4481109320       -1.5180455960       -0.6167746925
 H          0.2299138711        2.5750057528        0.2830857094
 H         -2.1400132422        2.0263807208        0.6151499458
 H         -3.4880059887        1.8661469963       -2.2228999570
 H         -3.5269773656        4.3108857682       -2.5633189698
 H         -4.5652294077        5.7763609965       -0.8714030228
 H         -5.5545758168        4.7958724174        1.1650703986
 H         -5.5010205555        2.3556064311        1.5132842641
 H         -6.8704959040        1.5355856883       -1.5173275244
 H         -9.1178286706        2.4654353479       -1.1848253160
 H        -10.4668223721        1.7869746751        0.7671754419
 H         -9.5504858890        0.1668467243        2.3887437401
 H         -7.2887675675       -0.7571235412        2.0658741418
 H         -7.7126562220       -2.0722499278       -0.4530606205
 H         -8.8638668176       -4.2124124191       -0.1100431038
