116

C    -10.660615   -4.619795   -1.876932
C    -10.729235   -3.931100   -0.496084
C    -12.094010   -3.209106   -0.414437
C    -10.715850   -5.008112    0.610569
C     -9.518373   -2.996622   -0.324050
C     -8.215472   -3.513005   -0.377860
C     -7.079497   -2.705884   -0.230447
C     -7.249102   -1.322710   -0.041785
C     -8.526507   -0.774057    0.058675
C     -9.655808   -1.615801   -0.096263
C     -8.382807    0.619765    0.323489
C     -9.317353    1.667105    0.517110
C     -8.902703    2.994407    0.726818
C     -9.900427    4.149232    0.928035
C     -9.777398    5.141963   -0.248224
C     -9.594182    4.887058    2.250228
C    -11.376859    3.695333    0.994606
C     -7.522762    3.245404    0.719889
C     -6.574143    2.229462    0.538695
C     -7.019628    0.906214    0.369876
N     -6.330113   -0.288805    0.151885
C     -4.910265   -0.432667    0.135649
C     -4.130872    0.196234    1.112742
C     -2.741566    0.043672    1.102584
C     -2.109568   -0.728492    0.116158
C     -0.646306   -0.887601    0.114307
C     -0.106567   -2.032032    0.721819
C      1.269457   -2.235565    0.771225
C      2.145014   -1.297429    0.217598
C      3.524692   -1.502184    0.273413
C      4.404826   -0.566463   -0.270996
C      3.944273    0.612367   -0.892309
C      4.820168    1.587917   -1.449541
C      6.286261    1.460525   -1.402802
C      6.994391    1.758102   -0.228801
C      8.386519    1.636443   -0.182584
C      9.098645    1.206323   -1.309088
C     10.554180    1.063809   -1.284374
N     11.360814    1.700950   -2.110663
N     12.649124    1.455562   -1.736597
C     12.642123    0.612036   -0.721672
C     13.857604    0.028275   -0.151181
C     14.903244    0.870925    0.250913
C     16.075247    0.340262    0.794791
C     16.217333   -1.039481    0.929892
C     15.195250   -1.889118    0.511233
C     14.023301   -1.359197   -0.034559
N     11.319496    0.333866   -0.373958
C     10.850923   -0.505997    0.678373
C     11.507603   -0.521466    1.916508
C     11.043173   -1.344854    2.944758
C      9.925948   -2.153465    2.745746
C      9.269201   -2.142511    1.517216
C      9.727835   -1.322489    0.483843
C      8.399305    0.941254   -2.492669
C      7.006918    1.060282   -2.537179
C      4.278197    2.726907   -2.066278
C      2.901662    2.917911   -2.136748
C      2.027138    1.975834   -1.588203
C      0.647041    2.173168   -1.656599
C     -0.232657    1.241134   -1.105221
C      0.229407    0.074475   -0.463915
C      1.633981   -0.134108   -0.403378
C      2.539177    0.816244   -0.960504
C     -2.901133   -1.351851   -0.859479
C     -4.291932   -1.208053   -0.851872
H     -9.771642   -5.251757   -1.981277
H    -10.634267   -3.878941   -2.685119
H    -11.532365   -5.263819   -2.042653
H    -12.922458   -3.914686   -0.550508
H    -12.238374   -2.727812    0.560153
H    -12.192769   -2.442371   -1.192128
H     -9.825103   -5.643830    0.560761
H    -10.737999   -4.550427    1.606803
H    -11.587127   -5.668816    0.528759
H     -8.054534   -4.578841   -0.531200
H     -6.095912   -3.164916   -0.247704
H    -10.633690   -1.151482   -0.023914
H    -10.369371    1.404319    0.485433
H    -10.489135    5.969041   -0.143669
H     -8.776217    5.583865   -0.314968
H     -9.981704    4.645485   -1.205001
H    -10.326919    5.680866    2.437770
H     -9.624080    4.197757    3.103467
H     -8.605753    5.361032    2.243201
H    -11.696440    3.210738    0.063821
H    -11.543664    2.992888    1.820434
H    -12.045323    4.549722    1.154433
H     -7.150215    4.260613    0.845852
H     -5.519489    2.484849    0.509991
H     -4.585795    0.770059    1.916516
H     -2.147610    0.526061    1.877115
H     -0.766553   -2.773666    1.167746
H      1.649836   -3.134367    1.251115
H      3.934721   -2.394301    0.742653
H      5.470176   -0.776441   -0.202956
H      6.459860    2.091005    0.659458
H      8.905300    1.884934    0.740905
H     14.808750    1.949475    0.135924
H     16.878386    1.004017    1.104293
H     17.131276   -1.453229    1.348724
H     15.311855   -2.966389    0.601963
H     13.246535   -2.041695   -0.372048
H     12.361494    0.120033    2.122089
H     11.552491   -1.351234    3.905756
H      9.567841   -2.793973    3.548320
H      8.401734   -2.779492    1.360098
H      9.210386   -1.368156   -0.471460
H      8.938426    0.639884   -3.389316
H      6.484224    0.840234   -3.466631
H      4.938005    3.480276   -2.494008
H      2.520522    3.813565   -2.622246
H      0.236029    3.056727   -2.140012
H     -1.298925    1.441950   -1.188085
H     -2.432120   -1.946533   -1.641336
H     -4.868049   -1.672623   -1.648707
