  116
 
 C          9.4227783438        3.5240833325        0.7578263193
 C          8.8346844877        2.2369084431        1.3526519635
 C          9.2215266397        2.1245630633        2.8340641011
 C          9.4464498370        1.0450970636        0.6106215986
 C          7.3184925077        2.2871478411        1.2370886891
 C          6.6164666454        3.3135585779        1.8746806925
 C          5.2473182743        3.4071349224        1.7703724121
 C          4.5314058623        2.4648005954        1.0349595356
 C          5.1877636103        1.3915186176        0.4081693999
 C          6.5857433677        1.3591751256        0.5218311841
 B          4.3062357896        0.3768239812       -0.3550509008
 C          4.5940136904       -0.9932945149       -1.0102072609
 C          5.7802695804       -1.7338801203       -0.9003851905
 C          5.9873791023       -2.9474337669       -1.5284052162
 C          7.2837669278       -3.7345500826       -1.4060715765
 C          7.8875529243       -3.9249994759       -2.8046310945
 C          8.3252144161       -3.0295056673       -0.5321554784
 C          6.9807585529       -5.1029933330       -0.7798780684
 C          4.9461783959       -3.4578974787       -2.3080230595
 C          3.7512273607       -2.7845592080       -2.4237853963
 C          3.5630408155       -1.5668034350       -1.7737969697
 O          2.3219104362       -1.0187706925       -1.9417547008
 C          1.9352365193        0.0686975189       -1.2400772661
 C          0.5946058019        0.4184410087       -1.3015994228
 C          0.1394353206        1.4829687882       -0.5317371557
 N         -1.2380302727        1.7524252210       -0.4837817121
 C         -1.8112043722        2.9366834606       -0.8745701099
 C         -1.1965468583        4.0943696916       -1.3224848006
 C         -2.0060901219        5.1714307514       -1.6367903955
 C         -3.3940985085        5.0852758926       -1.4944222472
 C         -4.0154827431        3.9277968816       -1.0750643497
 C         -3.2288653565        2.8098365801       -0.7782116401
 C         -3.4857453162        1.4811355078       -0.3371413287
 C         -4.6989994774        0.7737955157       -0.1020977179
 C         -6.0031362828        1.3789017293       -0.3434511337
 C         -6.3412985264        1.8689561042       -1.6075772867
 C         -7.5914686179        2.4058825784       -1.8398228194
 C         -8.5223232191        2.4813084064       -0.8153029758
 C         -8.1884344828        2.0214983166        0.4496212567
 C         -6.9446750390        1.4738841579        0.6848949774
 C         -4.5393455385       -0.5362104170        0.3930169915
 C         -3.2845182674       -1.0982408773        0.7292823355
 C         -2.0701291682       -0.4034348598        0.4672989480
 C         -0.7705851301       -0.9970179242        0.7839337120
 C         -0.3646514646       -2.1807866547        0.1655937524
 C          0.8856017904       -2.7111874406        0.4175448882
 C          1.7450682426       -2.0822506340        1.3036106536
 C          1.3358836253       -0.9274238682        1.9524186103
 C          0.0904666521       -0.3886658794        1.6983103338
 C         -2.2254023757        0.8710490993       -0.1103698743
 C         -3.5417628445       -2.3718033413        1.3113148318
 C         -2.7550128984       -3.3658003762        1.9021873839
 C         -3.3681618714       -4.5131290106        2.3585622219
 C         -4.7456889776       -4.7119783882        2.2374318086
 C         -5.5548837110       -3.7376475619        1.6784058658
 C         -4.9508386659       -2.5696010487        1.2457354430
 N         -5.5245591563       -1.4539624158        0.6761992321
 C         -6.8797128942       -1.3874304884        0.3093470317
 C         -7.2284902204       -1.2120332170       -1.0258647029
 C         -8.5604060007       -1.1471634308       -1.3845485771
 C         -9.5490700117       -1.2723627169       -0.4220836243
 C         -9.2021003655       -1.4714699923        0.9030971929
 C         -7.8711708190       -1.5314697386        1.2732251134
 C          1.0187980869        2.2601197663        0.2130749107
 C          2.3653877216        1.9201793373        0.2321466012
 C          2.8475096828        0.8037269694       -0.4670230201
 O          3.1825540682        2.6855451546        0.9891863486
 H          9.0679972375        4.4033253486        1.2883651827
 H          9.1368462575        3.6189481743       -0.2877416817
 H         10.5090572112        3.5044920922        0.8187995245
 H          8.8717852875        2.9820984587        3.4019323585
 H         10.3033769528        2.0677328663        2.9361928047
 H          8.7858267855        1.2273049328        3.2688449713
 H         10.5281615362        1.0611262155        0.7295706138
 H          9.2258678347        1.0909307356       -0.4533957180
 H          9.0793809069        0.1036205334        1.0127486562
 H          7.1417088652        4.0599896154        2.4508118772
 H          4.7065951206        4.2114383807        2.2459336186
 H          7.0965098150        0.5706134039       -0.0013441953
 H          6.5518379403       -1.3239893654       -0.2733437356
 H          8.8272946409       -4.4694320498       -2.7369089461
 H          8.0807629574       -2.9581042830       -3.2647430732
 H          7.2182279738       -4.4827232132       -3.4535492217
 H          7.9584829473       -2.8939141670        0.4827569985
 H          9.2276988640       -3.6359198985       -0.4839958844
 H          8.5942917617       -2.0614861970       -0.9485015116
 H          6.5373459265       -4.9750670484        0.2055368329
 H          7.8976234073       -5.6793915493       -0.6738801610
 H          6.2888350474       -5.6740918132       -1.3926792554
 H          5.0595871525       -4.3996591262       -2.8232000873
 H          2.9388802957       -3.1882538829       -3.0090854529
 H         -0.0886203707       -0.1595129088       -1.9024047918
 H         -0.1230371321        4.1518409437       -1.4173160076
 H         -1.5621520917        6.0912644600       -1.9845949438
 H         -3.9959200359        5.9527467715       -1.7237721978
 H         -5.0874378310        3.8909040282       -0.9693538744
 H         -5.6198143895        1.7995426045       -2.4088535327
 H         -7.8441670558        2.7673899607       -2.8262662103
 H         -9.4997120556        2.9014814229       -0.9992883221
 H         -8.9032867242        2.0942591495        1.2563394329
 H         -6.6799851816        1.1340733770        1.6760384766
 H         -1.0293382194       -2.6629820232       -0.5366890267
 H          1.1974203941       -3.6139877606       -0.0870924973
 H          2.7290074888       -2.4880324163        1.4859829935
 H          1.9954353570       -0.4432028630        2.6577738007
 H         -0.2291711116        0.5066100590        2.2117468971
 H         -1.6902174201       -3.2350748582        2.0048579149
 H         -2.7683947376       -5.2849916136        2.8185003702
 H         -5.1848734749       -5.6321386547        2.5906829198
 H         -6.6203058699       -3.8846492559        1.5839036982
 H         -6.4516902078       -1.1252269984       -1.7704524063
 H         -8.8279228455       -1.0020853214       -2.4201144349
 H        -10.5889529057       -1.2177006797       -0.7059502777
 H         -9.9704655553       -1.5737721259        1.6548156582
 H         -7.5926302351       -1.6652105322        2.3080475840
 H          0.6611011177        3.0867397458        0.8061081308
