  69
 
 C         -5.7256929866       -4.4303346443        0.7019808486
 C         -4.7727024584       -3.2883346374        0.5175837576
 C         -5.0065627157       -2.2960899073       -0.4222097494
 C         -4.1382023397       -1.2268382061       -0.5848069895
 C         -4.4452721988       -0.2024306849       -1.6383279689
 C         -2.9744028919       -1.1306793672        0.1989963767
 B         -1.9375042221        0.0221929348       -0.0274928628
 C         -0.4356405096       -0.3734852097       -0.2672917008
 C         -0.0921280279       -1.5322426539       -0.9751697245
 C          1.2225310639       -1.8769246039       -1.2032739756
 C          2.2527673297       -1.0743334343       -0.7050647098
 C          3.6405513035       -1.4328672264       -0.9329462337
 N          3.8973671154       -2.5085568900       -1.6964105396
 C          5.1704171801       -2.7639397564       -1.8621972243
 Cl         5.5513572431       -4.1269853006       -2.8374380500
 N          6.1892793446       -2.1014760423       -1.3716615236
 C          5.8503610296       -1.0453634687       -0.6146340714
 C          6.9245763280       -0.2593338744       -0.0231495649
 C          8.2572458716       -0.5728609443       -0.2967156492
 C          9.2719806720        0.1749601939        0.2683925572
 C          8.9695581421        1.2362162156        1.1091306465
 C          7.6471335942        1.5518044900        1.3850951547
 C          6.6262294165        0.8106572295        0.8229176552
 N          4.5944178744       -0.6884974799       -0.3822687007
 C          1.9304372913        0.0810368971        0.0127599485
 C          0.6110989883        0.4228345742        0.2145182382
 C         -2.2964497766        1.5480396153       -0.0302670251
 C         -1.9089360668        2.3791818973       -1.0929852140
 C         -1.2196592189        1.8258015166       -2.3091876768
 C         -2.1762930617        3.7404009789       -1.0580034606
 C         -2.8220514247        4.3245912366        0.0196505354
 C         -3.1176518768        5.7936210479        0.0532053829
 C         -3.2107466163        3.5031111401        1.0698171153
 C         -2.9670972346        2.1395676337        1.0567015306
 C         -3.3960949908        1.3152902614        2.2357301237
 C         -2.7426250993       -2.1339530613        1.1554547264
 C         -1.5413456875       -2.0928880177        2.0586645994
 C         -3.6351589577       -3.1834209332        1.3054454176
 H         -5.1848338679       -5.3719670155        0.7824761773
 H         -6.2977616522       -4.2957067310        1.6208204810
 H         -6.4240597163       -4.4946539064       -0.1290821062
 H         -5.8904673984       -2.3553962211       -1.0431089302
 H         -5.4376910542       -0.3645464977       -2.0529752799
 H         -4.3961329497        0.8019626438       -1.2252183492
 H         -3.7227842499       -0.2625496202       -2.4513443885
 H         -0.8802082143       -2.1661919314       -1.3557194516
 H          1.4798444646       -2.7685307022       -1.7546986110
 H          8.4721015177       -1.4017612008       -0.9531008786
 H         10.3016350678       -0.0694492300        0.0545398749
 H          9.7655469187        1.8175405397        1.5500113973
 H          7.4136541770        2.3768955381        2.0409964314
 H          5.5920796156        1.0393653231        1.0260967451
 H          2.7315324956        0.6978530518        0.3893559398
 H          0.3733961933        1.3247909119        0.7600149810
 H         -1.4463802470        0.7738568628       -2.4526776029
 H         -0.1387561659        1.9268692350       -2.2057397803
 H         -1.5217553321        2.3759903920       -3.1987899796
 H         -1.8734625486        4.3567367077       -1.8940052838
 H         -2.8053934967        6.2255960403        1.0029713870
 H         -4.1897548552        5.9631125203       -0.0521287089
 H         -2.6067780282        6.3131550350       -0.7540364306
 H         -3.7209265032        3.9412955008        1.9171584112
 H         -3.9710282802        0.4512649713        1.9118547817
 H         -4.0033086005        1.9070619313        2.9170384266
 H         -2.5277870213        0.9498023594        2.7824964877
 H         -0.7336647282       -2.6894833885        1.6331068746
 H         -1.1764459231       -1.0792340628        2.1919769770
 H         -1.7860726695       -2.5111510726        3.0335095203
 H         -3.4394313732       -3.9399965028        2.0536588884
