  98
 
 C          7.4577676693       -0.3220232058        0.3986970444
 C          5.9853684456       -0.0595437504        0.2903022285
 C          5.3064325937        0.6481386250        1.2735755631
 C          3.9473836039        0.8790764484        1.1728498265
 C          3.2255671933        0.4013880413        0.0848144295
 C          1.7700860853        0.6431750440       -0.0229240324
 C          0.8960883445       -0.4386481860       -0.0424353810
 C          1.4163602241       -1.8159747880       -0.0396076445
 C          2.2590878399       -2.2669762119        0.9726990436
 C          2.7408044237       -3.5615993015        0.9652185217
 C          2.4032470265       -4.4496924203       -0.0484807043
 C          2.9299805289       -5.8642785751       -0.0373147981
 C          3.7723250371       -6.1482391682       -1.2835245731
 C          1.7812911424       -6.8692804803        0.0838600001
 C          1.5636874034       -3.9966156086       -1.0602866351
 C          1.0760925044       -2.7057032402       -1.0565802744
 C         -0.5056225688       -0.2092054833       -0.0234989066
 C         -1.4074082472       -1.3743264412       -0.0614647977
 C         -1.3199820757       -2.4047292772        0.8727330023
 C         -2.1502021450       -3.5050651267        0.7917772867
 C         -3.0884105060       -3.6241452464       -0.2270417324
 C         -3.9946441710       -4.8272071047       -0.3259034196
 C         -4.9104781835       -4.9219324971        0.8973902879
 C         -3.1812625550       -6.1125359345       -0.4984895039
 C         -3.1720973612       -2.5969071867       -1.1602247030
 C         -2.3484718757       -1.4919260147       -1.0822971188
 C         -1.0002628180        1.0918495362       -0.0328638319
 C         -0.1114722096        2.1895756880       -0.2450817279
 C         -0.6775913175        3.4151572253       -0.6721224602
 N          0.0765132943        4.4904894558       -1.0651247874
 C         -2.0867286759        3.5658463767       -0.7699209843
 C         -2.9616532370        2.5969386625       -0.3549217485
 C         -4.4061938487        2.7641338714       -0.3620779541
 C         -5.0267818341        3.7669304267       -1.1005280853
 C         -6.4050615609        3.9366165972       -1.0833899368
 C         -7.1932648794        3.0852149877       -0.3277318071
 C         -6.6095680244        2.0666235519        0.3983327590
 C         -5.2148002776        1.8798261667        0.4008658544
 C         -4.5828178602        0.8371003958        1.1419937029
 N         -5.3074434500       -0.0120752385        1.9412832754
 C         -3.2110253145        0.5917099931        0.9791270822
 C         -2.4108038935        1.3768053875        0.1813349051
 C          1.2900771478        1.9573784034       -0.1235206508
 C          2.2543527796        3.0619048712       -0.0248795516
 C          2.1267891182        4.0145207923        0.9912535371
 C          3.0534948608        5.0268278525        1.1307148350
 C          4.1377606615        5.1319525614        0.2645986534
 C          5.1540757635        6.2208483291        0.4326406507
 C          4.2647874911        4.1869214573       -0.7478301438
 C          3.3457580023        3.1662990010       -0.8903831716
 C          3.9020271405       -0.3153518751       -0.8973323519
 C          5.2610957699       -0.5385018722       -0.7954842382
 H          7.9453920243       -0.1828228780       -0.5645166228
 H          7.6314165070       -1.3514695574        0.7148219666
 H          7.9185725788        0.3410166294        1.1270589831
 H          5.8477035154        1.0274650288        2.1295429691
 H          3.4360261894        1.4303864382        1.9496276371
 H          2.5258764853       -1.5999734831        1.7803677953
 H          3.3896759004       -3.8885013811        1.7669707544
 H          3.5756908314       -5.9781693157        0.8415368346
 H          3.1650476221       -6.0860362065       -2.1832702279
 H          4.5817016188       -5.4251761209       -1.3649541325
 H          4.2025267144       -7.1462620596       -1.2277815643
 H          2.1717687064       -7.8827289628        0.1522177358
 H          1.1925088003       -6.6630407767        0.9755303574
 H          1.1245663813       -6.8102999101       -0.7806431827
 H          1.2818884730       -4.6595562283       -1.8655878288
 H          0.4299560767       -2.3733022317       -1.8571851830
 H         -0.6035972358       -2.3321369249        1.6791162314
 H         -2.0583072760       -4.2835340928        1.5354693317
 H         -4.6262793110       -4.7034435132       -1.2133708585
 H         -4.3284145702       -5.0668331535        1.8043662459
 H         -5.5955592434       -5.7605803585        0.7907241832
 H         -5.4933701688       -4.0090948547        1.0029810634
 H         -3.8454201433       -6.9637535253       -0.6347851711
 H         -2.5337117700       -6.0348503263       -1.3697051915
 H         -2.5595561452       -6.2978641808        0.3739819598
 H         -3.8907204396       -2.6655705469       -1.9658286019
 H         -2.4256970953       -0.7069708867       -1.8221489320
 H          1.0562421708        4.3445868200       -1.2460153915
 H         -0.3896064166        5.1941667700       -1.6144779379
 H         -2.4470949442        4.5121370754       -1.1439189254
 H         -4.4342766081        4.4252509741       -1.7167988615
 H         -6.8567870154        4.7276511527       -1.6637480466
 H         -8.2666303701        3.2100893355       -0.3117634532
 H         -7.2452864932        1.3962120602        0.9571798869
 H         -6.1927195853        0.3042009180        2.2995209853
 H         -4.7788851554       -0.6171992706        2.5485987659
 H         -2.7863690143       -0.2454195003        1.5109953933
 H          1.2928701111        3.9425423392        1.6752249684
 H          2.9394801647        5.7465964152        1.9294544332
 H          4.7025381536        7.1094465904        0.8686319868
 H          5.6026523417        6.4832715880       -0.5231605748
 H          5.9519802794        5.8870027992        1.0979275687
 H          5.0976295582        4.2498905731       -1.4344971695
 H          3.4595416358        2.4476985955       -1.6894868880
 H          3.3561991820       -0.6916578208       -1.7513806762
 H          5.7700378175       -1.0928690400       -1.5721913601
