  106
 
 C         -8.2284502553       -1.5535378121        1.0100138061
 C         -8.2917542950       -0.2537499873        0.5320179377
 C         -7.1431102642        0.5081660920        0.4409346633
 C         -5.9189958791       -0.0338723837        0.8219123014
 C         -4.6909205995        0.7424126296        0.6691578996
 N         -4.7634543187        2.0665677564        0.5872649811
 C         -3.5961210250        2.7189779461        0.4412207858
 C         -3.6196939691        4.1773016761        0.4330508071
 C         -4.8198119884        4.8629921247        0.6211674806
 C         -4.8346756452        6.2438002581        0.6170361050
 C         -3.6588484078        6.9533807774        0.4267375553
 C         -2.4628882587        6.2762117282        0.2397725407
 C         -2.4390252878        4.8963771674        0.2419146597
 N         -2.4318730579        2.1174352559        0.2859970479
 C         -2.4394166619        0.7801635418        0.3299052242
 C         -1.2143677606        0.0772883850        0.0552189383
 C         -0.0015089497        0.7377007280        0.1854653841
 C          1.2138640794        0.0838644718        0.0485845164
 C          2.4369366512        0.7943758029        0.3145908244
 N          2.4216800197        2.1311729622        0.2643558495
 C          3.5836634247        2.7396410901        0.4110180275
 C          3.5994107758        4.1980813472        0.3947352231
 C          4.7960309729        4.8911706428        0.5777482524
 C          4.8035678543        6.2719995241        0.5654407364
 C          3.6238580572        6.9741804092        0.3717781504
 C          2.4313640270        6.2896072432        0.1897816181
 C          2.4147974718        4.9096844934        0.2003086027
 N          4.7548671331        2.0942713464        0.5546813879
 C          4.6897771286        0.7701864725        0.6431325055
 C          5.9227504923        0.0011899790        0.7931812918
 C          5.8734911016       -1.3004699602        1.2853255124
 C          7.0308254813       -2.0478210560        1.3772510767
 C          8.2413211137       -1.5051649492        0.9759291737
 C          8.2952800137       -0.2068327891        0.4928564678
 C          7.1420769321        0.5484722262        0.4044023619
 N          3.5562247611        0.0988026835        0.5755929645
 C          1.2124296271       -1.2977204544       -0.3105869160
 N          2.4136123480       -1.9770108862       -0.5487180427
 C          3.3901493693       -1.5904340761       -1.4457136521
 C          3.3944384646       -0.5272552749       -2.3374962535
 C          4.5290725055       -0.3366593396       -3.1032436328
 C          5.6246585464       -1.1906854114       -3.0034064640
 C          5.6070639401       -2.2766121951       -2.1480067093
 C          4.4802847083       -2.4866306925       -1.3677291344
 C          4.1214229677       -3.4765977719       -0.3887967310
 C          4.7620576097       -4.5944702762        0.1228908291
 C          4.1267219382       -5.3292972686        1.1075175073
 C          2.8733103181       -4.9551787374        1.5894355691
 C          2.2143015187       -3.8471879342        1.0939164039
 C          2.8386726915       -3.1147646400        0.0923469294
 C          0.0039187023       -1.9574457920       -0.4732854493
 C         -1.2071843352       -1.3039672338       -0.3056992464
 N         -2.4059123107       -1.9885204986       -0.5409123820
 C         -3.3875096788       -1.6040298481       -1.4334130567
 C         -3.4002895351       -0.5380357125       -2.3217419798
 C         -4.5385194598       -0.3507663743       -3.0829674057
 C         -5.6293772834       -1.2107100467       -2.9821854651
 C         -5.6032143762       -2.2993769456       -2.1305109461
 C         -4.4726648603       -2.5061589092       -1.3548138722
 C         -4.1052270255       -3.4977054659       -0.3806924057
 C         -4.7381894454       -4.6208931434        0.1289047864
 C         -4.0956098695       -5.3560760039        1.1085377553
 C         -2.8425624089       -4.9771025363        1.5876188748
 C         -2.1911287024       -3.8637499223        1.0941054563
 C         -2.8227351619       -3.1308641009        0.0974045430
 N         -3.5542353925        0.0776392003        0.5932247750
 C         -5.8603363917       -1.3370527054        1.3089800751
 C         -7.0131301255       -2.0910524077        1.4035930890
 H         -9.1289316696       -2.1466099746        1.0787332632
 H         -9.2410073380        0.1634279829        0.2290091884
 H         -7.1712814214        1.5196885886        0.0660742849
 H         -5.7250467882        4.2955126264        0.7716094245
 H         -5.7653081159        6.7726605895        0.7634209693
 H         -3.6743138954        8.0335509315        0.4245831564
 H         -1.5477254623        6.8309427135        0.0922000981
 H         -1.5186318252        4.3532682391        0.0963175835
 H         -0.0036402747        1.7793991191        0.4645357146
 H          5.7043781176        4.3293768092        0.7307622734
 H          5.7314944201        6.8066507884        0.7079114461
 H          3.6336304807        8.0543876309        0.3629878575
 H          1.5132415854        6.8386016235        0.0391541413
 H          1.4972391125        4.3608054679        0.0584593468
 H          4.9245410805       -1.7073253335        1.5984953257
 H          6.9878716287       -3.0569664734        1.7600562443
 H          9.1453377158       -2.0930817558        1.0425278852
 H          9.2408014370        0.2143711755        0.1838040027
 H          7.1629293151        1.5587251994        0.0256595132
 H          2.5472332043        0.1375187661       -2.4190715589
 H          4.5669978136        0.4935237250       -3.7929848027
 H          6.4971155463       -1.0018297699       -3.6107632741
 H          6.4533116678       -2.9432736174       -2.0806556411
 H          5.7382318265       -4.8789551164       -0.2396013414
 H          4.6087775027       -6.2039290950        1.5183957634
 H          2.4104676594       -5.5429422402        2.3682031200
 H          1.2510912282       -3.5508893484        1.4798123415
 H          0.0060313010       -2.9933893825       -0.7829799097
 H         -2.5567960114        0.1313257364       -2.4041269807
 H         -4.5830662869        0.4814845868       -3.7698123298
 H         -6.5049101221       -1.0242951112       -3.5858572295
 H         -6.4457466032       -2.9706600600       -2.0625088867
 H         -5.7140666035       -4.9091688617       -0.2313825493
 H         -4.5715877413       -6.2348407691        1.5176754578
 H         -2.3739206539       -5.5653675871        2.3625255510
 H         -1.2281617539       -3.5639394982        1.4778587743
 H         -4.9077390250       -1.7398529029        1.6162645040
 H         -6.9628569987       -3.1013409449        1.7824719286
