  83
 
 C         12.0974250582       -0.3988486888       -0.0160284948
 C         11.7383633504        0.7516059420        0.6703935540
 C         10.4237834277        1.1732781138        0.6786474364
 C          9.4433663957        0.4434616631        0.0015350776
 C          8.0814549876        0.9376529804        0.0304356537
 N          7.7704680324        2.2127270558        0.1044019735
 N          6.4539112957        2.3363099356        0.0765987464
 C          5.9123018342        1.1291756612       -0.0014122765
 C          4.5041289459        0.8992740329        0.0150843950
 C          3.9033796014       -0.3193504706        0.3934021192
 C          2.5461164885       -0.4676340287        0.3851955450
 C          1.6694094116        0.5896246328        0.0167375204
 C          0.2574283212        0.4236456432        0.0034294736
 C         -0.3580844622       -0.8650594797       -0.0052967120
 C         -1.7049008420       -1.0190747722       -0.0213428664
 C         -2.5954880577        0.1007833206       -0.0193685320
 C         -3.9720947746       -0.1691021899       -0.0184834384
 N         -4.4438980711       -1.4261770893        0.0638754984
 C         -5.7710553109       -1.3410213915        0.0748205084
 C         -6.7130653115       -2.4068512565        0.1683410106
 C         -6.2856170229       -3.7347058300        0.2625064487
 C         -7.2016911108       -4.7564407002        0.3606347313
 C         -8.5596948189       -4.4525671109        0.3673713305
 C         -8.9918928439       -3.1464222391        0.2748065766
 C         -8.0891431249       -2.0787044015        0.1696543336
 C         -8.5141261413       -0.6924734469        0.0598962441
 C         -9.8675577335       -0.3399804893        0.0448036876
 C        -10.2856200965        0.9683925963       -0.0675092285
 C         -9.3488307568        1.9945251679       -0.1795277609
 C         -8.0109525385        1.6961489856       -0.1677020777
 C         -7.5575002140        0.3672154642       -0.0425594756
 C         -6.1916747655        0.0115316830       -0.0148912886
 N         -5.0367462532        0.7458110292       -0.0732964565
 C         -4.9395032950        2.1509120517       -0.2052194466
 C         -5.0173806711        2.9609384035        0.9240687446
 C         -4.9240322366        4.3345911535        0.7867453900
 C         -4.7543370695        4.8996234389       -0.4675568948
 C         -4.6787207500        4.0909755418       -1.5903236549
 C         -4.7716950539        2.7158592978       -1.4654154227
 C         -1.9883306627        1.3893827627        0.0015584828
 C         -0.6372243411        1.5353456965        0.0051896894
 C          2.2917181763        1.8250637745       -0.3191740483
 C          3.6467847725        1.9726690094       -0.3178881001
 N          6.9274194387        0.1888609920       -0.0354341761
 C          6.8277248693       -1.2105747113       -0.1451411434
 C          7.3713847183       -2.0216562422        0.8459460369
 C          7.2851069177       -3.3969370288        0.7262302772
 C          6.6589790097       -3.9641091964       -0.3720812951
 C          6.1180062130       -3.1535385272       -1.3578009206
 C          6.2019099944       -1.7774400737       -1.2518174322
 C          9.8161436805       -0.6993649035       -0.7067663229
 C         11.1347474888       -1.1148865514       -0.7089119327
 H         13.1249968134       -0.7307238670       -0.0180732460
 H         12.4869509602        1.3205628289        1.2018018650
 H         10.1289460550        2.0680736485        1.2052983387
 H          4.5194961907       -1.1411701335        0.7262114936
 H          2.1327572145       -1.4072364946        0.7165304922
 H          0.2636347997       -1.7459213460       -0.0386390880
 H         -2.1510107147       -2.0006949288       -0.0455570216
 H         -5.2232602680       -3.9244671109        0.2569189963
 H         -6.8736983613       -5.7825287583        0.4329702598
 H         -9.2863168068       -5.2482321472        0.4462568267
 H        -10.0541938623       -2.9633476384        0.2849497926
 H        -10.6215611400       -1.1062156979        0.1220543615
 H        -11.3408014101        1.1974335953       -0.0732713494
 H         -9.6740720480        3.0195968987       -0.2756787657
 H         -7.2894570236        2.4907613230       -0.2592463890
 H         -5.1489098480        2.5073740112        1.8956047305
 H         -4.9823198278        4.9632853974        1.6623141152
 H         -4.6805825610        5.9715645859       -0.5697845739
 H         -4.5471797794        4.5299965774       -2.5676184403
 H         -4.7118782641        2.0740310759       -2.3321372510
 H         -2.6049540054        2.2717331296        0.0350797983
 H         -0.2327221808        2.5341956280        0.0543688973
 H          1.6825988048        2.6623363530       -0.6206710301
 H          4.1025401348        2.9134056391       -0.5871110634
 H          7.8559401761       -1.5685866563        1.6987765497
 H          7.7062737915       -4.0251226723        1.4964538531
 H          6.5924420970       -5.0377382611       -0.4602442350
 H          5.6315331772       -3.5920830711       -2.2159462192
 H          5.7838221846       -1.1353710663       -2.0137011103
 H          9.0826086270       -1.2531680696       -1.2733497622
 H         11.4112219279       -2.0015678976       -1.2605012751
