  144
 
 O         -0.0131950847        1.7828234754        3.0929010418
 C         -0.0457372197        1.0491677798        2.1150217054
 C          1.1912635486        0.6874127403        1.3816658765
 C          1.2281076148        0.6198419379       -0.0107383293
 C          2.3960967494        0.2781114531       -0.6621294610
 C          3.5441420338       -0.0249394331        0.0693209452
 N          4.7024545645       -0.4579032143       -0.5852363266
 C          4.7347625945       -1.6201536179       -1.3385389508
 C          3.6717922537       -2.3766708179       -1.8073831763
 C          3.9537338037       -3.5468190848       -2.4850710262
 C          5.2679592113       -3.9679517447       -2.6582695015
 C          6.3274423561       -3.2307294919       -2.1681501709
 C          6.0781222692       -2.0250868626       -1.5179641298
 C          6.8921054526       -1.0470887033       -0.8416768315
 C          8.2632009023       -0.9119700655       -0.5639295980
 C          8.7227009757        0.0352044238        0.3831577964
 C         10.1028338677       -0.2784980712        0.6372819162
 C         11.0513828231        0.1465524097        1.5636762700
 C         12.3238740024       -0.3860238159        1.5138219745
 C         12.6732222734       -1.3327527958        0.5547839892
 C         11.7364184812       -1.8170973039       -0.3371969451
 C         10.4455037190       -1.3159093073       -0.2615743798
 N          9.3267415221       -1.6838471129       -0.9842878686
 C          9.3992503418       -2.4468222373       -2.1630702528
 C          9.9237149619       -3.7357109363       -2.1368368422
 C         10.0308505530       -4.4583019219       -3.3121986350
 C          9.6149778191       -3.9058730639       -4.5127503123
 C          9.0887005847       -2.6242701795       -4.5381979750
 C          8.9852631996       -1.8911122263       -3.3706111532
 C          7.8387757847        1.0458466906        0.7924245965
 C          6.4687428526        1.0058768197        0.4404242622
 C          5.8800519321        2.2210663673        0.9354234711
 C          4.6395797004        2.8402441246        0.8016987044
 C          4.4357276508        4.0733180526        1.3874779426
 C          5.4540652109        4.7227999755        2.0798748090
 C          6.7111752371        4.1603699985        2.1804652748
 C          6.9134827851        2.9130139197        1.6090479931
 N          8.0859717952        2.1874589929        1.5214612651
 C          9.3394854003        2.7653089627        1.8011172443
 C         10.2510795378        2.9818736736        0.7727214501
 C         11.4653362368        3.5842676577        1.0452443706
 C         11.7729811641        3.9812945218        2.3364387053
 C         10.8621301595        3.7733687479        3.3593015700
 C          9.6461085032        3.1670572487        3.0969561713
 C          6.0010844571       -0.1084306340       -0.2730532118
 C          3.5169903934        0.0633397082        1.4612761132
 C          2.3567842471        0.4364623842        2.1050953710
 C         -1.3125896328        0.4526745661        1.6364848279
 C         -1.3406652430       -0.7443616417        0.9189303745
 C         -2.5438465659       -1.3069767924        0.5455684369
 C         -3.7464602329       -0.6878672561        0.8868788339
 N         -4.9637073949       -1.2928053254        0.5615252712
 C         -5.3114438472       -2.5578113905        1.0068204573
 C         -4.5071636091       -3.5341186055        1.5744144803
 C         -5.0829282378       -4.7505517135        1.8867443311
 C         -6.4268738502       -4.9906668610        1.6199241487
 C         -7.2405048907       -4.0039800274        1.0997763152
 C         -6.7016383361       -2.7483706884        0.8322545047
 C         -7.2212421195       -1.5081180437        0.3150718182
 C         -8.4991840957       -1.0191660792       -0.0003816765
 C         -8.6701638303        0.2254394400       -0.6540696238
 C        -10.0706292477        0.3297649987       -0.9714228258
 C        -10.8504168583        1.2063700508       -1.7217454655
 C        -12.2113847992        0.9926275588       -1.8088199075
 C        -12.8180511120       -0.0806329869       -1.1624954166
 C        -12.0634223143       -0.9998279731       -0.4608480967
 C        -10.6911178233       -0.8074345462       -0.4032475182
 N         -9.7310478086       -1.6116241397        0.1784134771
 C        -10.0569116809       -2.6366227369        1.0853551992
 C         -9.6465992858       -2.5443694516        2.4120258155
 C         -9.9984885204       -3.5328259818        3.3122833584
 C        -10.7683021744       -4.6088517488        2.9010085714
 C        -11.1819403932       -4.6987209769        1.5818573939
 C        -10.8284882258       -3.7181244669        0.6716004690
 C         -7.5409133838        1.0338051837       -0.8571410149
 C         -6.2378209727        0.5678181822       -0.5559566556
 C         -5.3243408320        1.5625428971       -1.0542885999
 C         -3.9436809270        1.6389702673       -1.2209564969
 C         -3.3919120696        2.7888483585       -1.7495310332
 C         -4.1874810526        3.8703972666       -2.1166002392
 C         -5.5632510692        3.7993723489       -2.0223982414
 C         -6.1223212896        2.6297245231       -1.5298852001
 N         -7.4562325642        2.2967683937       -1.4040140452
 C         -8.4853002851        3.2527641002       -1.4864235777
 C         -9.2686423146        3.5240819951       -0.3684731271
 C        -10.2587423450        4.4864534954       -0.4380577937
 C        -10.4659301117        5.1902458785       -1.6133737453
 C         -9.6820592082        4.9257746177       -2.7246053509
 C         -8.6932464050        3.9593074311       -2.6669285305
 C         -6.1066627553       -0.6650381408        0.1011556624
 C         -3.7244244331        0.5090428017        1.6049506806
 C         -2.5206161635        1.0653269368        1.9773407570
 H          0.3463115272        0.8636350428       -0.5836905649
 H          2.4320469110        0.2607646288       -1.7410179060
 H          2.6504810124       -2.0758271630       -1.6334924525
 H          3.1431758282       -4.1500373478       -2.8667681531
 H          5.4644045235       -4.8980691689       -3.1713068579
 H          7.3287255293       -3.6061956349       -2.2806371131
 H         10.8007844668        0.8627659662        2.3277046711
 H         13.0630087489       -0.0593560914        2.2307626739
 H         13.6845591083       -1.7109224206        0.5216362528
 H         12.0037123683       -2.5670699962       -1.0657918719
 H         10.2215858146       -4.1714747017       -1.1947061942
 H         10.4343102767       -5.4599975442       -3.2875936330
 H          9.6981767576       -4.4746283240       -5.4266804999
 H          8.7630969623       -2.1909121623       -5.4721474257
 H          8.5781969299       -0.8908857217       -3.3814415202
 H          3.8468982002        2.3870025835        0.2311356639
 H          3.4700283889        4.5491174218        1.2954658116
 H          5.2654215433        5.6899386026        2.5224092549
 H          7.5159574872        4.6848270225        2.6729851822
 H         10.0019981195        2.6732908559       -0.2315869653
 H         12.1721782175        3.7468717473        0.2452837259
 H         12.7215931436        4.4526534437        2.5456265954
 H         11.0998172928        4.0791627004        4.3676687195
 H          8.9369668983        2.9884563190        3.8921380639
 H          4.4081740376       -0.1623818254        2.0262652841
 H          2.3267272449        0.5115010269        3.1820188206
 H         -0.4185900187       -1.2464052079        0.6689587870
 H         -2.5604492935       -2.2197212207       -0.0305528056
 H         -3.4613038440       -3.3563946593        1.7706301849
 H         -4.4759701982       -5.5294023756        2.3244498944
 H         -6.8446034481       -5.9646146590        1.8289261242
 H         -8.2727889726       -4.2232853015        0.8919494465
 H        -10.4093150423        2.0339538902       -2.2488814745
 H        -12.8169915782        1.6734546354       -2.3892215146
 H        -13.8887706719       -0.2078926434       -1.2272213709
 H        -12.5294241437       -1.8437609801        0.0245779829
 H         -9.0495558922       -1.7009614355        2.7252823560
 H         -9.6746103857       -3.4595094413        4.3398069649
 H        -11.0439963529       -5.3779414363        3.6068087410
 H        -11.7769874512       -5.5394387252        1.2566182750
 H        -11.1279544223       -3.7944704989       -0.3633259083
 H         -3.3050352945        0.8102258532       -0.9677210785
 H         -2.3214416198        2.8537874091       -1.8792635352
 H         -3.7248380596        4.7676837755       -2.5007886551
 H         -6.1829947693        4.6281891241       -2.3284862678
 H         -9.0996422576        2.9727293054        0.5444710125
 H        -10.8675498063        4.6904207162        0.4301665186
 H        -11.2386594483        5.9425551890       -1.6643827587
 H         -9.8448618232        5.4684987226       -3.6441839847
 H         -8.0951205496        3.7319803600       -3.5370867254
 H         -4.6546667679        0.9866202154        1.8719578175
 H         -2.4906581379        1.9840969884        2.5443296579
