  83
 
 O         -0.6700057221       -2.7268936847        2.3055500778
 P         -0.3991557249       -2.5183310369        0.8683806924
 C          0.5127371932       -3.9218685569        0.1432527908
 C          1.0763623371       -3.8851704843       -1.1265505764
 C          1.7170932859       -5.0035141629       -1.6263399650
 C          1.7924456310       -6.1617393473       -0.8671306036
 C          1.2284972362       -6.2019030971        0.3972433279
 C          0.5871501094       -5.0829958129        0.8997343424
 C         -1.8988707797       -2.4720413895       -0.1643951308
 C         -3.0677650445       -2.9588847143        0.4031287058
 C         -4.2235528788       -3.0440735018       -0.3521479669
 C         -4.2075608979       -2.6504229258       -1.6802739576
 C         -3.0398366068       -2.1633168518       -2.2486630774
 C         -1.8840382868       -2.0765868743       -1.4953256048
 C          0.6476581677       -1.0641710838        0.5197209877
 C          2.0110261566       -1.2986307668        0.6238221298
 C          2.9506556492       -0.3020310796        0.3704430243
 N          4.2624254722       -0.5135511341        0.4689129709
 C          5.1380798850        0.4496609462        0.2126650472
 C          4.6584700144        1.7559136841       -0.1832220511
 N          3.3529111844        1.9667289718       -0.2879811923
 C          2.4705057106        1.0023295017       -0.0274094866
 C          1.0966428136        1.2123735998       -0.1098966213
 C          0.1743879163        0.2095066650        0.1759560798
 C         -1.2556364569        0.5212093425        0.1492624439
 C         -1.8123749239        1.2693354788       -0.8894717131
 C         -3.1532985890        1.5804767544       -0.8979029705
 C         -3.9840871645        1.1618181157        0.1468308060
 N         -5.3383005340        1.4860362795        0.1485196485
 C         -6.0451842157        1.5690149506       -1.0564350144
 C         -7.0243467402        2.5483189822       -1.2348501321
 C         -7.7199307169        2.6229562421       -2.4260193333
 C         -7.4510384777        1.7310258031       -3.4529390486
 C         -6.4786133505        0.7577625698       -3.2797922280
 C         -5.7787037012        0.6715045985       -2.0921891886
 C         -6.0000244858        1.7452810904        1.3548646455
 C         -5.3593008006        2.4468101749        2.3780482445
 C         -6.0227150931        2.7051663772        3.5617136737
 C         -7.3283937528        2.2752314671        3.7430321440
 C         -7.9693916143        1.5804629150        2.7287558667
 C         -7.3141666273        1.3129246801        1.5425905819
 C         -3.4271179991        0.4234292617        1.1949949636
 C         -2.0857190122        0.1092647349        1.1922062634
 C          5.6120438163        2.7486265116       -0.4432627819
 S          5.2374620375        4.3793273593       -0.9256620880
 C          6.9241490049        4.7636135522       -0.9853948707
 C          7.7260991256        3.7233944309       -0.6603422046
 C          6.9963016752        2.5475227500       -0.3428305940
 C          7.4647607596        1.2704766498        0.0396967457
 C          8.7960627682        0.8077635225        0.2110639273
 C          8.8526490576       -0.4909290476        0.5864935660
 S          7.2960807866       -1.2302781318        0.7552114317
 C          6.5238515689        0.2644078212        0.3037326974
 H          1.0283481044       -2.9780477615       -1.7111412164
 H          2.1619351215       -4.9720611863       -2.6102630113
 H          2.2950330020       -7.0324605852       -1.2618451805
 H          1.2887951796       -7.1018159453        0.9917074179
 H          0.1465598871       -5.0862201967        1.8873523790
 H         -3.0514789309       -3.2595905728        1.4416715912
 H         -5.1329803267       -3.4216375448        0.0917354410
 H         -5.1062447846       -2.7272822033       -2.2745322285
 H         -3.0293912604       -1.8526502330       -3.2833320701
 H         -0.9741749253       -1.6920503711       -1.9320784403
 H          2.3718938393       -2.2784698025        0.9067993861
 H          0.7568560679        2.2042969094       -0.3664801839
 H         -1.1824560088        1.5986840079       -1.7023110673
 H         -3.5658300274        2.1673561150       -1.7047377324
 H         -7.2235186584        3.2528302318       -0.4410400837
 H         -8.4706415618        3.3880819736       -2.5566349525
 H         -7.9960070571        1.7942014720       -4.3824828792
 H         -6.2691450017        0.0569034471       -4.0740479767
 H         -5.0310782654       -0.0940466620       -1.9477972044
 H         -4.3475007220        2.7951950604        2.2320179815
 H         -5.5194956673        3.2533674251        4.3442285623
 H         -7.8431641839        2.4812653021        4.6690429920
 H         -8.9841009046        1.2375632565        2.8656484034
 H         -7.8085247285        0.7591508802        0.7584072185
 H         -4.0553007041        0.0879528192        2.0062617511
 H         -1.6642645532       -0.4449413128        2.0181652487
 H          7.2137104149        5.7578650987       -1.2637842990
 H          8.7992747463        3.7791757642       -0.6432635755
 H          9.6635043002        1.4237105658        0.0587772113
 H          9.7249135941       -1.0831171736        0.7822532111
