  60
 
 C          0.6651891187        1.3605589673       -1.7067758562
 C         -0.1698068107        0.6441669479       -0.6877217214
 C         -1.5492652050        0.6170703004       -0.8368139561
 C         -2.3708611553       -0.0135642188        0.0861235967
 N         -3.7673903415       -0.0102149490       -0.1222257699
 C         -4.5445119765       -1.1076632219       -0.4115390851
 C         -4.1607338648       -2.4257696805       -0.6167724738
 C         -5.1497130074       -3.3457551479       -0.9068214267
 C         -6.4885987575       -2.9680159181       -0.9999472928
 C         -6.8726206130       -1.6538074575       -0.8196098361
 C         -5.8973511214       -0.7083946236       -0.5272380753
 C         -5.9212353516        0.7098801898       -0.3015335978
 C         -6.9299758432        1.6651424227       -0.2771498762
 C         -6.5927146565        2.9783055664       -0.0143793465
 C         -5.2701703447        3.3470390607        0.2289327488
 C         -4.2486940544        2.4171380138        0.2113243714
 C         -4.5815008983        1.0978798458       -0.0621403335
 C         -1.8260030240       -0.6201527956        1.2209785408
 C         -2.7005849631       -1.2554537370        2.2576928842
 C         -0.4483055224       -0.5918489774        1.3643488902
 C          0.3868834227        0.0124182601        0.4284828225
 C          1.8421251936       -0.0260117031        0.6677305556
 C          2.7140457048       -0.5658310026       -0.2761380294
 C          4.0732827123       -0.6120572352       -0.0388506367
 C          4.5942992805       -0.1187773501        1.1576348986
 C          6.0408353062       -0.1735972264        1.4658477036
 O          6.4438300441       -0.3048714580        2.6134028232
 C          6.9849390545       -0.0614853777        0.3272181171
 C          6.7132580393        0.7502496398       -0.7733998327
 C          7.6352519008        0.8568382312       -1.7988028753
 C          8.8283337993        0.1533863257       -1.7412425516
 C          9.1097999804       -0.6468492463       -0.6447230100
 C          8.1987846573       -0.7446339105        0.3898365691
 C          3.7193709163        0.3924825396        2.1168140481
 C          2.3630045136        0.4442473543        1.8725295855
 H          0.9007963590        0.6962175407       -2.5383248983
 H          0.1190821796        2.2115917465       -2.1083016095
 H          1.5993704529        1.7103384215       -1.2750041894
 H         -2.0041258618        1.0983719202       -1.6913085075
 H         -3.1222606614       -2.7181084509       -0.5614798203
 H         -4.8809592451       -4.3799066561       -1.0682654163
 H         -7.2330511813       -3.7176821422       -1.2259756204
 H         -7.9091471710       -1.3628560558       -0.9071241108
 H         -7.9565873339        1.3828145661       -0.4588277897
 H         -7.3633526636        3.7352593658        0.0076081655
 H         -5.0410017823        4.3823471531        0.4368973446
 H         -3.2253586813        2.7032108747        0.4050332958
 H         -2.1433319002       -1.4233287258        3.1757525474
 H         -3.0832939662       -2.2140373394        1.9071947175
 H         -3.5584551020       -0.6203121086        2.4753728393
 H         -0.0013477436       -1.0623599906        2.2287882089
 H          2.3170920167       -0.9692815527       -1.1951411936
 H          4.7330329341       -1.0549470514       -0.7702012311
 H          5.7927319185        1.3137083011       -0.8112173108
 H          7.4229635412        1.4918336997       -2.6462635133
 H          9.5420918062        0.2339187009       -2.5478047363
 H         10.0419585358       -1.1898347892       -0.5938844141
 H          8.4043326933       -1.3573239964        1.2560544626
 H          4.1291128380        0.7574739072        3.0478172530
 H          1.6965118851        0.8608472336        2.6135349541
