106

C     -5.443886    5.480764    2.197143
C     -4.496422    4.793933    1.188007
C     -4.758859    5.432908   -0.193219
C     -3.051244    5.112665    1.629264
C     -4.684375    3.267985    1.094000
C     -5.647011    2.572809    1.861350
C     -5.809277    1.182739    1.770061
C     -5.002488    0.470179    0.902198
C     -4.036774    1.135360    0.125983
C     -3.874791    2.517505    0.216608
C     -3.258059    0.126025   -0.767988
C     -3.504739    0.337288   -2.279736
C     -4.616320    1.029515   -2.786882
C     -4.805990    1.152928   -4.161835
C     -3.884883    0.564177   -5.007409
N     -2.814518   -0.130497   -4.575221
C     -2.658508   -0.236504   -3.233603
C     -1.758672    0.184284   -0.350649
C     -0.889670    1.130316   -0.918876
C      0.455036    1.234586   -0.539872
C      0.944409    0.389673    0.473429
C      0.120000   -0.573417    1.052750
C     -1.235393   -0.654229    0.654471
C      0.901554   -1.313640    1.986058
C      0.604706   -2.390745    2.850668
C      1.591401   -2.895762    3.700194
C      2.860072   -2.332673    3.710085
C      3.176842   -1.267486    2.861937
C      2.193947   -0.784279    1.974581
N      2.214034    0.255062    1.042532
C      3.350755    1.056186    0.717609
C      3.210465    2.444862    0.597283
C      4.305450    3.230217    0.236983
C      5.540298    2.634951   -0.019582
C      5.689274    1.247289    0.099527
N      6.945239    0.641083   -0.207442
C      7.578378   -0.341540    0.555489
C      7.247348   -0.920942    1.797152
C      8.093285   -1.893127    2.338558
C      9.254850   -2.270764    1.679332
C      9.604707   -1.667426    0.469278
C      8.766778   -0.680090   -0.095714
C      8.867225    0.127260   -1.265930
C      9.837023    0.225215   -2.288629
C      9.641392    1.106006   -3.354748
C      8.489174    1.876997   -3.422057
C      7.515956    1.799948   -2.421314
C      7.730916    0.937770   -1.324778
C      4.597773    0.454784    0.487440
C     -3.965503   -1.197501   -0.348933
C     -3.715886   -2.494338   -0.802950
C     -4.463365   -3.570172   -0.292165
C     -4.233126   -5.023268   -0.749325
C     -3.132864   -5.174108   -1.824543
C     -5.536442   -5.593614   -1.349464
C     -3.809888   -5.883793    0.460196
C     -5.456558   -3.284983    0.678872
C     -5.708216   -1.984100    1.132723
C     -4.959614   -0.944240    0.614973
H     -5.292532    5.102183    3.214967
H     -5.270707    6.563421    2.227320
H     -6.496336    5.331197    1.929211
H     -5.768978    5.199036   -0.550070
H     -4.052760    5.082021   -0.954029
H     -4.664729    6.524395   -0.148178
H     -2.901888    6.192623    1.743694
H     -2.308916    4.762558    0.903817
H     -2.819392    4.640159    2.591033
H     -6.296928    3.099194    2.555830
H     -6.558532    0.684984    2.377117
H     -3.122475    3.004985   -0.396302
H     -5.357417    1.469794   -2.123912
H     -5.659987    1.688563   -4.560284
H     -3.990555    0.631185   -6.086111
H     -1.791259   -0.825472   -2.942061
H     -1.247640    1.815020   -1.687474
H      1.093657    1.955121   -1.041726
H     -1.863490   -1.386350    1.155041
H     -0.393015   -2.821009    2.863676
H      1.357057   -3.721814    4.366691
H      3.614977   -2.716681    4.392456
H      4.160708   -0.817407    2.915782
H      2.264818    2.936147    0.816584
H      4.198252    4.309981    0.163667
H      6.384604    3.271590   -0.275712
H      6.366725   -0.612788    2.347864
H      7.841954   -2.350848    3.292599
H      9.904846   -3.026644    2.112563
H     10.526938   -1.951647   -0.029762
H     10.731207   -0.390397   -2.253133
H     10.388098    1.173933   -4.141520
H      8.334643    2.542653   -4.268275
H      6.608027    2.387451   -2.515223
H      4.693751   -0.628927    0.512717
H     -2.936714   -2.646822   -1.541825
H     -2.159431   -4.827484   -1.458069
H     -3.376729   -4.610858   -2.732955
H     -3.010315   -6.223300   -2.119577
H     -5.388405   -6.616467   -1.715852
H     -6.349519   -5.631751   -0.616245
H     -5.881828   -4.984079   -2.193000
H     -3.605909   -6.917725    0.157408
H     -2.900628   -5.486955    0.927236
H     -4.585382   -5.922805    1.232953
H     -6.055514   -4.090665    1.099779
H     -6.477295   -1.809333    1.877418
