  75
 
 N        -10.1183131415        1.2428792885        1.3514028202
 C         -8.9986325237        1.0913630603        1.1315261390
 C         -7.6351244180        0.9091159827        0.8620763195
 C         -6.9558008584       -0.2224083867        1.3439721726
 C         -5.6285432753       -0.4051171340        1.0634438669
 C         -4.8987515735        0.5357252068        0.2993775960
 C         -3.5037519164        0.3488224898        0.0251830440
 C         -2.6354328617        1.4522432130       -0.0544493275
 C         -1.2717511535        1.3329734003       -0.1476349822
 C         -0.4599962263        2.5241885913       -0.3813156889
 C         -0.7077999276        3.7155751047        0.3061502345
 C          0.0627624308        4.8373889554        0.0756901851
 C          1.0901695948        4.8022752941       -0.8551354547
 C          1.3333351008        3.6346633253       -1.5608520546
 C          0.5713390186        2.5077600456       -1.3286381287
 C         -0.6715732537        0.0115323443       -0.1272686487
 C          0.7275037073       -0.1760597098        0.0213941453
 C          1.5347720640        0.7642671775        0.7248455983
 C          2.8890567616        0.6308309933        0.8044939106
 C          3.5464238658       -0.4511967586        0.1883100970
 N          4.9292825063       -0.5433486670        0.2075126101
 C          5.7029500749        0.6205535120        0.1582019145
 C          5.2872800692        1.7121577262       -0.6078455244
 C          6.0492793066        2.8622815619       -0.6454409740
 C          7.2340633475        2.9437588633        0.0699232476
 C          7.6523863134        1.8616752259        0.8287938157
 C          6.8959445958        0.7078751359        0.8785215385
 C          5.5532502150       -1.7931283229        0.2658053217
 C          5.0038129496       -2.8190231579        1.0374801450
 C          5.6184720902       -4.0541847359        1.0865516093
 C          6.7855007500       -4.2862861283        0.3753292638
 C          7.3358878354       -3.2698703059       -0.3902969754
 C          6.7279862240       -2.0319480382       -0.4502044659
 C          2.7592462277       -1.4321259344       -0.4494931129
 C          1.4020269543       -1.3066415026       -0.5154571575
 C         -1.5569146361       -1.0865012785       -0.2278848970
 C         -2.9174393286       -0.9613036891       -0.1582743170
 C         -3.7535544965       -2.1471189841       -0.3680139517
 C         -4.8450748591       -2.1008057906       -1.2385753200
 C         -5.6122229453       -3.2261453811       -1.4645511975
 C         -5.3114946357       -4.4179001533       -0.8244511556
 C         -4.2270010404       -4.4786525580        0.0357004134
 C         -3.4516539737       -3.3570213095        0.2578610628
 C         -5.5923377351        1.6823067049       -0.1499226062
 C         -6.9244087286        1.8610615778        0.1104572184
 H         -7.4924242577       -0.9429963185        1.9442740447
 H         -5.1150503926       -1.2600481683        1.4753842568
 H         -3.0623287987        2.4446185565       -0.0391563980
 H         -1.4894438951        3.7446637055        1.0517142867
 H         -0.1330378612        5.7450614305        0.6281297073
 H          1.6927030285        5.6807748372       -1.0318115031
 H          2.1209160184        3.6057427860       -2.3004195976
 H          0.7482920729        1.6100542457       -1.9028791626
 H          1.0542817211        1.5677161625        1.2596814938
 H          3.4721590793        1.3455593977        1.3670549990
 H          4.3712721159        1.6443211357       -1.1756719553
 H          5.7199902704        3.6988824909       -1.2431714965
 H          7.8273841240        3.8444305168        0.0365959318
 H          8.5707922695        1.9201912354        1.3935097524
 H          7.2146070800       -0.1287147806        1.4828268589
 H          4.1038065982       -2.6314298311        1.6041927049
 H          5.1884051099       -4.8389302213        1.6906555503
 H          7.2635058764       -5.2527367014        0.4177049251
 H          8.2414034293       -3.4456616430       -0.9514595577
 H          7.1488783332       -1.2447349251       -1.0582440884
 H          3.2502445544       -2.2677980922       -0.9271096207
 H          0.8372609578       -2.0462002375       -1.0615415590
 H         -1.1411430928       -2.0773651812       -0.3381344640
 H         -5.0756925716       -1.1791701046       -1.7526034679
 H         -6.4510365605       -3.1745140505       -2.1432726976
 H         -5.9186438668       -5.2944443035       -0.9950874286
 H         -3.9881823551       -5.4044493524        0.5393579086
 H         -2.6196381228       -3.4047276927        0.9464577741
 H         -5.0748115972        2.4088617813       -0.7588782118
 H         -7.4455670662        2.7301764817       -0.2651589962
