  130
 
 C          5.4835928395        1.5797130461        0.9058782449
 C          5.6928781919        0.6906887779       -0.1355005974
 C          4.8047542543       -0.3462118013       -0.3535595072
 C          3.6920873385       -0.5094746698        0.4679791611
 C          2.7489751465       -1.6248618760        0.2588417020
 C          1.3882193603       -1.3621104110        0.1798726956
 C          0.4606232783       -2.3755270624       -0.0331776907
 C         -0.9695155988       -2.0247632409       -0.0559961629
 C         -1.9047551614       -2.7122317517        0.7159975417
 C         -3.2252590054       -2.3111786270        0.7499630405
 C         -3.6416724673       -1.1979184605        0.0230067773
 C         -5.0012187412       -0.6901056033        0.1499319075
 N         -6.1058228867       -1.3807764737        0.0416341570
 C         -7.1200378072       -0.4847131181        0.1891503144
 C         -8.5189856588       -0.7267516242        0.1364073556
 C         -9.0254687755       -2.0071014546       -0.1213363752
 C        -10.3803733137       -2.2162947846       -0.1945167756
 C        -11.2487206565       -1.1416767018       -0.0126962169
 C        -10.7627145424        0.1203790649        0.2471867402
 C         -9.3865081731        0.3741534467        0.3377594411
 C         -8.8468369249        1.6913955583        0.6373794868
 C         -9.6768393884        2.7862133215        0.9145329091
 C         -9.1678569371        4.0267957734        1.2262980200
 C         -7.7920208048        4.2260986657        1.2860620059
 C         -6.9431968592        3.1805772086        1.0152508009
 C         -7.4431337314        1.9134331329        0.6812789384
 C         -6.6045936665        0.7985359962        0.4085778795
 N         -5.2429726623        0.6528850964        0.3815361083
 C         -4.1951870569        1.5702523966        0.5714043789
 C         -3.3058265988        1.3653351114        1.6340415034
 C         -2.1595473074        2.1053580226        1.7339624747
 C         -1.8038418849        3.0515054449        0.7387794486
 C         -0.5050046167        3.6348672720        0.7226865443
 C          0.0908097228        4.0969618374       -0.4898228556
 C          1.4030973284        4.4329493897       -0.5621804264
 C          2.2430351005        4.3878587865        0.5949226632
 C          3.6230866551        4.6033964799        0.5843148757
 N          4.3235414965        4.9023873662        1.6998556230
 C          5.5788112639        5.1439582169        1.3059531211
 C          6.7059379755        5.5028923006        2.0618823400
 C          7.9039729967        5.6466295526        1.4010826625
 C          8.0140896027        5.4388480936        0.0208448214
 C          6.9162122483        5.0929825131       -0.7544279123
 C          5.7014370096        4.9645634777       -0.1099121082
 N          4.4499955386        4.6178258935       -0.5503707211
 C          4.1691058853        4.0918948845       -1.8209324053
 C          4.5089053407        4.8105377458       -2.9636420972
 C          4.2557665985        4.2740562207       -4.2134408406
 C          3.6652998359        3.0263682880       -4.3322379394
 C          3.3273791278        2.3112169918       -3.1935422844
 C          3.5794636021        2.8344541823       -1.9402197419
 C          1.5983793102        4.1202204658        1.8462419425
 C          0.3031313404        3.7276710815        1.8989618671
 C         -2.7646370545        3.3016222449       -0.2761413086
 C         -3.9322104822        2.5896217970       -0.3540620715
 C         -2.7202312945       -0.5426247602       -0.7937538206
 C         -1.4037257931       -0.9485653682       -0.8274911950
 C          0.9074637358       -3.6929150294       -0.1876987790
 C         -0.0575914510       -4.7772133274       -0.4606912863
 C         -0.1376508555       -5.8911693897        0.3695404785
 C         -1.0452460150       -6.8995827708        0.1028504522
 C         -1.8812315648       -6.8115576972       -0.9980483794
 C         -1.8089666513       -5.7059343046       -1.8290345557
 C         -0.9055277979       -4.6941695010       -1.5614187688
 C          2.2755045083       -3.9710421854       -0.1023328781
 C          2.7505027041       -5.3638000711       -0.2571981604
 C          3.4404986717       -5.9938106145        0.7732942653
 C          3.8807380304       -7.2964740074        0.6276224120
 C          3.6420733438       -7.9842448944       -0.5505192894
 C          2.9584458950       -7.3631086324       -1.5824260150
 C          2.5123970156       -6.0624989754       -1.4362857677
 C          3.1978865626       -2.9454394441        0.1283108207
 C          4.6360721466       -3.2605713191        0.2531199986
 C          5.3242972808       -2.9272340187        1.4159648703
 C          6.6672668788       -3.2284004453        1.5468797845
 C          7.3423005722       -3.8601801125        0.5156205129
 C          6.6666022500       -4.1897715367       -0.6476098755
 C          5.3218185166       -3.8957022197       -0.7776507551
 C          3.4731382206        0.4098552643        1.4911160675
 C          4.3656995665        1.4435705257        1.7117732393
 H          6.1854306098        2.3814458588        1.0868988355
 H          6.5531461520        0.8061735379       -0.7791672943
 H          4.9700156550       -1.0311255759       -1.1717082711
 H          1.0400774906       -0.3449490206        0.2930858119
 H         -1.5876142153       -3.5508388628        1.3169292775
 H         -3.9412041746       -2.8351959062        1.3651433526
 H         -8.3180277587       -2.8097214651       -0.2641131374
 H        -10.7732708382       -3.2020304044       -0.3951289332
 H        -12.3157563597       -1.2993024943       -0.0749111031
 H        -11.4730257520        0.9208862126        0.3778135435
 H        -10.7478850706        2.6667635281        0.8957754044
 H         -9.8403937845        4.8460337600        1.4338753151
 H         -7.3927747576        5.1953706162        1.5455481629
 H         -5.8757327906        3.3274518452        1.0709091204
 H         -3.5303507951        0.6005898462        2.3637543963
 H         -1.4788300878        1.9036563916        2.5450593861
 H         -0.5043309803        4.1307371234       -1.3892991468
 H          1.8163568364        4.7700995626       -1.5000630660
 H          6.6174124583        5.6501121215        3.1265070909
 H          8.7889874230        5.9196397447        1.9572601371
 H          8.9786274202        5.5489962441       -0.4518526298
 H          7.0151193693        4.9215319670       -1.8155380450
 H          4.9511251701        5.7911923687       -2.8657551874
 H          4.5168530831        4.8370519840       -5.0973182539
 H          3.4687165281        2.6126080934       -5.3097308515
 H          2.8716060752        1.3362325114       -3.2795160805
 H          3.3317799684        2.2792943355       -1.0482751082
 H          2.1995265476        4.2041617007        2.7378152374
 H         -0.1453839416        3.5158053832        2.8576869819
 H         -2.5781474752        4.0769532336       -1.0024390583
 H         -4.6412319237        2.7800093396       -1.1480742646
 H         -3.0386676041        0.2839184854       -1.4109093222
 H         -0.7007982444       -0.4283029082       -1.4616754643
 H          0.5068074404       -5.9591278759        1.2340741648
 H         -1.0995757186       -7.7582636521        0.7565670743
 H         -2.5878802130       -7.6015016920       -1.2067435893
 H         -2.4589367439       -5.6313794699       -2.6890522837
 H         -0.8461852691       -3.8350668026       -2.2145578716
 H          3.6228499449       -5.4609891827        1.6956848372
 H          4.4125837293       -7.7764249804        1.4366332059
 H          3.9878191264       -9.0014713394       -0.6640694172
 H          2.7705693177       -7.8942591536       -2.5045417976
 H          1.9822326846       -5.5782872014       -2.2440535256
 H          4.7981026567       -2.4380448108        2.2234772133
 H          7.1889877744       -2.9685945923        2.4568730750
 H          8.3921228776       -4.0938566179        0.6178447884
 H          7.1889538583       -4.6799814886       -1.4566195124
 H          4.7990008745       -4.1487677294       -1.6888450150
 H          2.6098589532        0.2979857148        2.1317381216
 H          4.1914610913        2.1493463647        2.5106836834
