  57
 
 C         -1.9870683180        3.5899513459        2.3165943170
 C         -1.9057724030        2.3886548213        3.0047387809
 C         -1.9478442391        1.1770215228        2.3277855899
 C         -2.0725406610        1.1968229685        0.9561127996
 C         -2.1542104029        2.4083321657        0.2544866347
 C         -2.1118270920        3.6130675257        0.9366348835
 C         -2.2754955883        2.1117977352       -1.1642893537
 C         -2.3904982715        2.9438124761       -2.2656074838
 C         -2.4936529674        2.3697435249       -3.5225867190
 C         -2.4818238984        0.9919676482       -3.6798243938
 C         -2.3668739812        0.1515761976       -2.5805375800
 C         -2.2647715806        0.7192403827       -1.3297058025
 C         -2.1365052827        0.0264539223        0.0051591260
 C         -3.2707975299       -0.9265783113        0.2950993676
 C         -4.6203285979       -0.6570056502        0.3487903043
 C         -5.4915652212       -1.7001099830        0.6336506982
 C         -5.0146465791       -2.9828057666        0.8584159269
 C         -3.6575781518       -3.2574120758        0.8051962864
 C         -2.7821883448       -2.2218284214        0.5218579070
 C         -1.3344435397       -2.1949222555        0.4023583131
 C         -0.3816074565       -3.1915114708        0.5370248068
 C          0.9521837851       -2.8652225092        0.3697961099
 C          1.3540716240       -1.5614952931        0.0753836235
 C          2.7796299567       -1.2400881600       -0.0762153167
 C          3.6384105822       -2.1254660015       -0.7648734318
 C          4.9659114291       -1.8457383301       -0.9079122272
 C          5.5221010162       -0.6677382528       -0.3659628771
 C          6.8904974182       -0.3533750172       -0.4891813797
 C          7.3936471959        0.7973462543        0.0505080289
 C          6.5505763612        1.6857807441        0.7367291781
 C          5.2193156200        1.4094532558        0.8723345166
 C          4.6685058396        0.2301257562        0.3270508837
 C          3.3016634821       -0.0826692222        0.4520106088
 C          0.3894796845       -0.5598041937       -0.0610707168
 C         -0.9362937100       -0.8841459836        0.1007569758
 H         -1.9524112338        4.5202254623        2.8649735184
 H         -1.8085759224        2.3954803333        4.0804895971
 H         -1.8844004477        0.2405849979        2.8630113735
 H         -2.1742357685        4.5512536258        0.4053096690
 H         -2.4004744737        4.0173842997       -2.1483779926
 H         -2.5848717561        3.0034676057       -4.3928357470
 H         -2.5635978099        0.5672883663       -4.6695765785
 H         -2.3584104891       -0.9219495452       -2.7021317386
 H         -4.9911774699        0.3424953121        0.1732789520
 H         -6.5537675963       -1.5100198519        0.6805704428
 H         -5.7118935167       -3.7783282626        1.0781041235
 H         -3.2908974667       -4.2578997951        0.9811723238
 H         -0.6714650398       -4.2048215047        0.7730144419
 H          1.7045236794       -3.6306562910        0.4940824950
 H          3.2231051075       -3.0231541142       -1.1994151945
 H          5.6137171644       -2.5260038862       -1.4430380545
 H          7.5354097575       -1.0407643876       -1.0185032823
 H          8.4436971552        1.0320517127       -0.0464370258
 H          6.9654788290        2.5905003103        1.1569825860
 H          4.5662376848        2.0906254959        1.3995970998
 H          2.6639278691        0.5987944339        0.9977939767
 H          0.6824225664        0.4502173337       -0.3087743710
