  82
 
 C        -10.0135335934        0.8757130418       -0.9123184003
 C         -9.1341791129        0.0008096763       -0.0003806115
 C        -10.0154294706       -0.8728934758        0.9108729300
 C         -8.2853938435       -0.9072509515       -0.8703729084
 C         -8.9026334861       -1.8043190441       -1.7308439616
 C         -8.1801433019       -2.6559818729       -2.5461728169
 C         -6.7981772643       -2.6185361711       -2.5080937311
 C         -6.1585161653       -1.7370370214       -1.6624968220
 C         -6.8873343411       -0.8749400799       -0.8380113260
 N         -6.2162731313       -0.0007908703        0.0003235060
 C         -4.7940861993       -0.0009971478        0.0001498738
 C         -4.0988168833        0.8262001646       -0.8748967562
 C         -2.7186290026        0.8276301836       -0.8768834914
 C         -2.0167404603       -0.0009132032        0.0001462779
 C         -0.6037012027       -0.0006776243        0.0003799049
 C          0.6036993584       -0.0003559371        0.0004418899
 C          2.0167401872       -0.0000313446        0.0004156691
 C          2.7187785154       -0.8297038750       -0.8754144336
 C          4.0989634787       -0.8280729917       -0.8733830710
 C          4.7940866433        0.0004228201        0.0005497329
 N          6.2162748737        0.0005604262        0.0005769004
 C          6.8871234063       -0.8738165676        0.8388492319
 C          6.1581055070       -1.7348532409        1.6642671768
 C          6.7975583736       -2.6165631601        2.5098019743
 C          8.1795149077       -2.6552725682        2.5469051669
 C          8.9022042296       -1.8045873513        1.7307331502
 C          8.2851753169       -0.9073098067        0.8703281136
 C          9.1341762320       -0.0003350407       -0.0005897623
 C         10.0136613275       -0.8751742984       -0.9124567301
 C         10.0153084964        0.8737801150        0.9103790398
 C          8.2850356627        0.9073340740       -0.8706476628
 C          8.9019231022        1.8043545113       -1.7314214704
 C          8.1790996391        2.6556570347       -2.5468310934
 C          6.7971494911        2.6178429581       -2.5085692769
 C          6.1578348130        1.7363511622       -1.6627032809
 C          6.8869897819        0.8746815495       -0.8380679106
 C          4.0986247269        0.8287072044        0.8744119106
 C          2.7184353350        0.8298668224        0.8763180751
 C         -2.7185840494       -0.8295768743        0.8770850762
 C         -4.0987702644       -0.8282348749        0.8751183087
 C         -6.8867794195        0.8739655064        0.8384750516
 C         -6.1574241165        1.7351897890        1.6634009377
 C         -6.7965330969        2.6172462453        2.5088324723
 C         -8.1784739742        2.6561570650        2.5462912575
 C         -8.9014955709        1.8053676860        1.7305224002
 C         -8.2848185227        0.9077531123        0.8702183634
 H        -10.6496866862        0.2615850931       -1.5437263417
 H         -9.3843339392        1.4904319432       -1.5534942451
 H        -10.6492805427        1.5324366727       -0.3249027582
 H        -10.6516483474       -1.5287378306        0.3229866405
 H        -10.6512095740       -0.2579097256        1.5418174053
 H         -9.3875705111       -1.4884910711        1.5525153285
 H         -9.9807773959       -1.8449434962       -1.7710746348
 H         -8.6929410227       -3.3413122631       -3.2037513243
 H         -6.2143289450       -3.2750853549       -3.1360572311
 H         -5.0795800353       -1.7127991051       -1.6371192632
 H         -4.6499719040        1.4643250753       -1.5497837839
 H         -2.1729245893        1.4679205851       -1.5540641546
 H          2.1731850028       -1.4709630836       -1.5517643295
 H          4.6502258744       -1.4670479013       -1.5473738444
 H          5.0791754133       -1.7096197120        1.6396813437
 H          6.2135515610       -3.2722577324        3.1385100875
 H          8.6921513490       -3.3408300936        3.2043711670
 H          9.9803376396       -1.8462001081        1.7701976254
 H         10.6495626206       -0.2610039730       -1.5440782548
 H          9.3845532827       -1.4902051643       -1.5534168696
 H         10.6496664923       -1.5316061005       -0.3249934042
 H          9.3873513300        1.4893311936        1.5519671624
 H         10.6513463779        0.2590971530        1.5413608443
 H         10.6512676064        1.5296815093        0.3222768940
 H          9.9800497846        1.8452404499       -1.7718204729
 H          8.6916285060        3.3409984538       -3.2046066368
 H          6.2130418845        3.2740670839       -3.1366308945
 H          5.0789093866        1.7117957067       -1.6372234624
 H          4.6496127469        1.4678364858        1.5484799399
 H          2.1725754738        1.4709129610        1.5526566961
 H         -2.1728362360       -1.4697783954        1.5543101250
 H         -4.6498653666       -1.4663864898        1.5500201740
 H         -5.0785041245        1.7098696942        1.6384722411
 H         -6.2122680038        3.2731045495        3.1371301672
 H         -8.6908435338        3.3420086778        3.2036583788
 H         -9.9796125075        1.8471675584        1.7702328109
