91

C      1.219338   -3.930374    3.326876
C      0.680542   -2.666630    3.621679
C      0.354691   -1.773395    2.600460
C      0.582968   -2.168622    1.288637
C      1.125568   -3.442351    0.986724
C      1.445985   -4.325713    2.004345
C      1.286663   -3.566616   -0.450557
C      1.803749   -4.602473   -1.210560
C      1.875670   -4.439810   -2.598250
C      1.436026   -3.254462   -3.212184
C      0.912529   -2.208043   -2.452179
C      0.845030   -2.372513   -1.074440
C      0.272238   -1.388852   -0.015140
C      0.990038   -0.004340   -0.058922
C      0.175089    1.158819   -0.118005
C      0.806537    2.396291   -0.348283
C      2.185832    2.526135   -0.433748
C      3.010644    1.423128   -0.277591
C      4.403705    1.631257   -0.333299
C      5.319424    0.587828   -0.178167
C      6.770001    0.821452   -0.238750
C      7.580367    0.098533   -1.125317
C      8.959387    0.321239   -1.186561
C      9.568211    1.274695   -0.358796
C     10.951788    1.510902   -0.406857
C     11.541950    2.462778    0.425992
C     10.757198    3.189296    1.316466
C      9.380576    2.965933    1.375342
C      8.770848    2.012556    0.543285
C      7.385050    1.775849    0.589863
C      4.796596   -0.680583    0.043431
C      3.409542   -0.890373    0.096222
C      2.446808    0.138250   -0.076411
C     -1.303594    1.094692    0.024456
C     -2.065963    2.257740    0.261563
C     -3.456297    2.240601    0.298479
C     -4.156799    1.050406    0.104981
C     -5.636794    1.105953    0.134676
C     -6.268853    0.969543    1.380284
C     -7.657089    1.014525    1.511675
C     -8.232429    0.868093    2.786234
C     -9.612177    0.907116    2.961619
C    -10.432637    1.093464    1.861196
C     -9.869426    1.239682    0.589375
C     -8.467230    1.205656    0.367599
C     -7.841017    1.350261   -0.922646
C     -8.576765    1.544806   -2.120946
C     -7.964806    1.681712   -3.368573
C     -6.587190    1.628405   -3.464066
C     -5.829157    1.439877   -2.311157
C     -6.421801    1.298945   -1.031619
C     -3.426292   -0.151333   -0.077424
C     -4.090135   -1.382333   -0.248458
C     -3.390170   -2.568775   -0.387658
C     -2.005893   -2.548486   -0.338055
C     -1.279149   -1.341269   -0.180907
C     -1.990884   -0.129302   -0.081363
H      1.465173   -4.609144    4.140429
H      0.512409   -2.383159    4.658131
H     -0.071106   -0.800994    2.827316
H      1.869236   -5.301648    1.792553
H      2.153279   -5.520461   -0.750524
H      2.279967   -5.241012   -3.212870
H      1.502543   -3.153000   -4.293039
H      0.565090   -1.294985   -2.925409
H      0.234203    3.308734   -0.490387
H      2.602927    3.515489   -0.611307
H      4.787643    2.635521   -0.511819
H      7.137908   -0.641720   -1.789321
H      9.553576   -0.257126   -1.890306
H     11.581198    0.952129   -1.095726
H     12.613941    2.635314    0.378988
H     11.215115    3.930186    1.966520
H      8.784106    3.543062    2.078385
H      6.773032    2.336927    1.294522
H      5.458689   -1.530790    0.195795
H      3.115937   -1.908275    0.304011
H     -1.594343    3.221311    0.432389
H     -3.995026    3.171138    0.469328
H     -5.649022    0.820360    2.264551
H     -7.601908    0.720337    3.661102
H    -10.040904    0.792044    3.953182
H    -11.512062    1.125836    1.983773
H    -10.561339    1.382352   -0.235483
H     -9.661754    1.593774   -2.107247
H     -8.570255    1.827847   -4.258993
H     -6.097108    1.730608   -4.428237
H     -4.747171    1.399420   -2.426864
H     -5.176979   -1.435691   -0.269386
H     -3.921333   -3.508403   -0.510646
H     -1.493702   -3.505748   -0.407981
