95

C     10.738090    2.356221    1.521571
C      9.783874    2.664785    0.378227
C      8.821719    1.518780    0.062845
C      7.838192    1.231748    1.196449
N      6.865696    0.220752    0.830100
C      6.926723   -1.133078    1.091809
C      7.919079   -1.887228    1.742413
C      7.707910   -3.257069    1.920071
C      6.539779   -3.862587    1.472643
C      5.556706   -3.113994    0.817923
C      5.758186   -1.736128    0.602671
C      5.022975   -0.680880   -0.023245
C      5.689716    0.486754    0.172682
C      4.935757    1.560322   -0.367943
C      5.120624    2.953822   -0.455235
C      4.165071    3.734692   -1.108961
C      3.048349    3.142959   -1.683981
C      2.848666    1.760873   -1.607787
C      3.788108    0.966675   -0.914951
N      3.846409   -0.418873   -0.710870
C      2.893282   -1.382720   -1.134893
C      3.342405   -2.587985   -1.715642
C      2.429146   -3.548713   -2.147530
C      1.088557   -3.258738   -1.977589
C      0.598694   -2.070912   -1.404080
C      1.518970   -1.121392   -0.978092
C     -0.864420   -2.020615   -1.339511
C     -1.676356   -1.010997   -0.838027
C     -3.073754   -1.176802   -0.872694
N     -3.918371   -0.150351   -0.372258
C     -3.782304    1.228580   -0.582931
C     -2.851073    1.959799   -1.351908
C     -2.958658    3.353003   -1.409651
C     -3.978055    4.017644   -0.741099
C     -4.928364    3.300908   -0.010849
C     -4.837170    1.897092    0.056802
C     -5.619466    0.875049    0.654510
C     -5.046457   -0.333053    0.414820
C     -5.787771   -1.335711    1.114456
C     -5.649261   -2.721241    1.330711
C     -6.609448   -3.402980    2.084300
C     -7.692325   -2.723548    2.628749
C     -7.838257   -1.345424    2.449094
C     -6.869823   -0.657681    1.696198
N     -6.759271    0.686272    1.398101
C     -7.637585    1.758898    1.815680
C     -8.580824    2.251705    0.715901
C     -9.629060    1.211650    0.315143
C    -10.594822    1.768706   -0.719132
C     -3.653747   -2.347914   -1.405778
C     -2.850020   -3.368092   -1.912663
C     -1.483020   -3.170742   -1.863277
S     -0.257101   -4.298033   -2.433497
O     -0.258229   -5.456959   -1.567963
O     -0.323337   -4.359533   -3.877078
H     11.297266    1.435229    1.328815
H     11.458871    3.171669    1.639365
H     10.205465    2.246057    2.470619
H     10.374730    2.879967   -0.520098
H      9.217552    3.574322    0.610217
H      8.266274    1.777898   -0.847377
H      9.391609    0.611607   -0.174665
H      8.359522    0.880669    2.092464
H      7.290409    2.134404    1.486862
H      8.830020   -1.426697    2.111491
H      8.463445   -3.853555    2.426109
H      6.385104   -4.926417    1.635114
H      4.644585   -3.604943    0.494983
H      6.000667    3.426906   -0.031572
H      4.306426    4.810156   -1.181680
H      2.324265    3.759582   -2.211866
H      1.987019    1.322987   -2.101635
H      4.404753   -2.769467   -1.871334
H      2.755426   -4.477001   -2.604910
H      1.180285   -0.210952   -0.491838
H     -1.234435   -0.127225   -0.386745
H     -2.066327    1.466188   -1.916292
H     -2.239454    3.920982   -1.995660
H     -4.047917    5.100976   -0.798847
H     -5.732722    3.831206    0.488805
H     -4.800717   -3.268801    0.933918
H     -6.503117   -4.472462    2.248359
H     -8.431172   -3.268035    3.212154
H     -8.683440   -0.829195    2.893017
H     -8.207388    1.425121    2.688924
H     -7.000910    2.581303    2.161229
H     -8.008462    2.550573   -0.170110
H     -9.091919    3.150984    1.081142
H     -9.142506    0.323289   -0.101937
H    -10.194048    0.891819    1.198039
H    -10.064363    2.073339   -1.626808
H    -11.132311    2.637852   -0.326553
H    -11.333018    1.009393   -0.995603
H     -4.735718   -2.456356   -1.465470
H     -3.278083   -4.271091   -2.335383
