  34
 
 C         -4.8426027879        1.3681819053       -0.0007350001
 C         -5.0219329453       -0.0242776675       -0.0010429093
 C         -3.9566302900       -0.8818480170       -0.0008005233
 C         -2.6405030854       -0.3397089236       -0.0002581028
 C         -2.4724372623        1.0924065467        0.0000855151
 C         -3.5515630958        1.9239225174       -0.0001498227
 C         -1.0069623752        1.4137457361        0.0005956448
 C         -0.3699628949        0.0522346098        0.0002435615
 C         -1.3889779327       -0.9483647556       -0.0001080204
 C         -1.0367036876       -2.3609212831       -0.0004302126
 C          0.2876785344       -2.7166195453       -0.0006690139
 C          1.2773523830       -1.7403340861       -0.0005140947
 C          0.9429127298       -0.3130455182        0.0000286723
 C          2.1739840745        0.4230289088        0.0000029274
 C          2.4214900316        1.7963006554        0.0004294540
 C          3.7308248443        2.2394732064        0.0001286893
 C          4.7893609760        1.3416183427       -0.0005869102
 C          4.5527327165       -0.0317775053       -0.0009600454
 C          3.2555876847       -0.4842608473       -0.0006412819
 C          2.7626595765       -1.9062615498       -0.0009234262
 H         -5.7041377952        2.0174475100       -0.0009654046
 H         -6.0289386254       -0.4169763943       -0.0014964596
 H         -4.0973977982       -1.9517142136       -0.0010474553
 H         -3.4297532877        2.9978880285        0.0000804596
 H         -0.7211368569        1.9935677159       -0.8815585347
 H         -0.7216310942        1.9928241763        0.8834058136
 H         -1.8220956248       -3.0983424310       -0.0005100898
 H          0.5705551784       -3.7603543480       -0.0009873559
 H          1.6061697486        2.5025924389        0.0009934333
 H          3.9352811969        3.3005435367        0.0004451765
 H          5.8047269383        1.7092179828       -0.0008477461
 H          5.3808729363       -0.7262650680       -0.0014991009
 H          3.1137007693       -2.4573146623       -0.8811149018
 H          3.1141487421       -2.4577961074        0.8787892615
