  66
 
 C         11.9202608727        0.4710175911       -0.1535446327
 C         11.2149573095       -0.5166109030       -0.8254193108
 C          9.8334304737       -0.4835864276       -0.8003565282
 C          9.1996210637        0.5438467489       -0.0985120129
 C          7.7353516716        0.6204253269       -0.0444258341
 C          7.0956746824        1.6490888091        0.6501461203
 C          5.7166756312        1.6750959285        0.6819077522
 C          4.9952084469        0.6797137072        0.0209061039
 C          3.5305427812        0.6561638513        0.0206510124
 C          2.7957766108        1.8389870463       -0.1008671950
 C          1.4250175077        1.7997211780       -0.1121003617
 C          0.7124860282        0.5968012915        0.0044860837
 C         -0.7358091761        0.5647010383       -0.0131083622
 C         -1.4982441659        1.7359296445       -0.1374932005
 C         -2.8692343356        1.7143428631       -0.1640674323
 C         -3.5527552395        0.4983174862       -0.0763591765
 C         -5.0165198017        0.4545778670       -0.1146645653
 C         -5.7070616666       -0.5379235350       -0.8121336454
 C         -7.0865144764       -0.5306906662       -0.8157476393
 C         -7.7575896099        0.4770248871       -0.1200509794
 C         -9.2237212679        0.5324538961       -0.1040386781
 C         -9.8914827536        1.5358451020        0.6009656087
 C        -11.2735475709        1.5494788436        0.5873168619
 C        -11.9456401543        0.5670379217       -0.1249676165
 C        -11.1907096955       -0.3871530144       -0.7921557989
 N         -9.8728947012       -0.4099903492       -0.7864128633
 N         -7.1041290078        1.4241911799        0.5523115660
 C         -5.7896701232        1.4086011222        0.5523105953
 C         -2.8151866413       -0.6646736691        0.0507970490
 C         -1.4169743582       -0.6679464871        0.0918555621
 C         -0.6654627750       -1.9025482079        0.2395555388
 C         -1.3076127976       -3.1426792128        0.3635589514
 C         -0.6035569528       -4.3141848443        0.5060044934
 C          0.7844810127       -4.2824207818        0.5310329760
 C          1.4390235571       -3.0799631742        0.4121480896
 C          0.7456242377       -1.8705109553        0.2636668699
 C          1.4450403712       -0.6035570572        0.1352055806
 C          2.8423400515       -0.5380366370        0.1355359398
 C          5.7385531873       -0.2939238847       -0.6518710968
 N          7.0521044792       -0.3280716910       -0.6845924929
 N          9.8805701892        1.4906004428        0.5457266259
 C         11.1976262793        1.4491679409        0.5147162392
 H         12.9991719048        0.4833127244       -0.1474555794
 H         11.7367723456       -1.2982245828       -1.3593650180
 H          9.2309495322       -1.2220497953       -1.3034184914
 H          7.6941031930        2.3930908125        1.1499635243
 H          5.1951348038        2.4462829573        1.2312831611
 H          3.3097584249        2.7824824988       -0.2111074481
 H          0.8975947573        2.7334067478       -0.2187048737
 H         -1.0105077292        2.6934360549       -0.2183584226
 H         -3.4228841384        2.6344389109       -0.2780386766
 H         -5.1610525158       -1.2911506993       -1.3629705542
 H         -7.6619072111       -1.2727565294       -1.3446700009
 H         -9.3140112444        2.2716311149        1.1362571699
 H        -11.8212794948        2.3124713020        1.1222331236
 H        -13.0236560471        0.5406160692       -0.1626531068
 H        -11.6656327477       -1.1759663052       -1.3622727435
 H         -5.3169555686        2.1912297593        1.1328057037
 H         -3.3604462997       -1.5897765748        0.1415356163
 H         -2.3835869988       -3.2011563064        0.3521870266
 H         -1.1284364118       -5.2533548811        0.5994503115
 H          1.3479581282       -5.1966662361        0.6444006248
 H          2.5162500113       -3.0890121865        0.4385639368
 H          3.4260575187       -1.4365821967        0.2489054023
 H          5.2412083605       -1.0770913944       -1.2109470458
 H         11.6993462533        2.2427305197        1.0544591628
