79

C     -5.872856    3.145562   -3.065596
C     -5.902093    3.537321   -1.717187
C     -5.926287    2.583998   -0.698273
C     -5.920651    1.241568   -1.054820
C     -5.891217    0.843825   -2.410803
C     -5.867214    1.792626   -3.420265
C     -5.891673   -0.603599   -2.481921
C     -5.868094   -1.448875   -3.579533
C     -5.874466   -2.830057   -3.359201
C     -5.904054   -3.352106   -2.055699
C     -5.927861   -2.503258   -0.948236
C     -5.921444   -1.132348   -1.171457
C     -5.942350    0.007291   -0.150290
C     -7.152160   -0.038268    0.786475
C     -8.503705   -0.022227    0.466945
C     -9.428848   -0.073053    1.510569
C     -9.000433   -0.138580    2.846570
C     -7.638341   -0.154524    3.163938
C     -6.717708   -0.104172    2.129765
C     -5.269454   -0.106148    2.160207
C     -4.393392   -0.158686    3.227763
C     -3.015597   -0.146327    2.964837
C     -2.490645   -0.082112    1.647432
C     -1.032292   -0.070713    1.404742
N     -0.602258   -0.004036    0.129967
C      0.735277    0.003107   -0.060314
C      1.675157   -0.048705    0.952888
C      3.121424   -0.036460    0.711609
C      3.707033    0.917109   -0.138270
C      5.087317    0.934094   -0.368806
C      5.911667   -0.012419    0.246187
N      7.319630   -0.000265    0.011445
C      8.105970   -1.127477   -0.240591
C      7.771219   -2.489187   -0.400909
C      8.789023   -3.408893   -0.670664
C     10.107038   -2.993340   -0.800103
C     10.433355   -1.640749   -0.679054
C      9.422373   -0.691353   -0.409575
C      9.433601    0.726984   -0.268904
C     10.461413    1.693842   -0.338491
C     10.169298    3.041166   -0.114858
C      8.873540    3.434372    0.190096
C      7.838695    2.497082    0.261767
C      8.126238    1.140647   -0.001701
C      5.347475   -0.970981    1.092692
C      3.966999   -0.977816    1.322627
C      1.115824   -0.112857    2.216373
N     -0.211236   -0.127425    2.471904
C     -3.408963   -0.029524    0.579573
C     -4.776969   -0.041752    0.840925
H     -5.853433    3.905484   -3.843344
H     -5.904975    4.595136   -1.464710
H     -5.948158    2.886346    0.344319
H     -5.843465    1.503217   -4.465325
H     -5.843969   -1.058466   -4.591195
H     -5.855174   -3.510098   -4.207688
H     -5.907342   -4.429580   -1.908165
H     -5.949883   -2.906374    0.059678
H     -8.833978    0.028447   -0.566200
H    -10.493200   -0.061822    1.287327
H     -9.738964   -0.177401    3.644029
H     -7.320641   -0.205335    4.199848
H     -4.750293   -0.208523    4.250952
H     -2.331074   -0.187806    3.812048
H      1.034778    0.043447   -1.104861
H      3.091634    1.669110   -0.630364
H      5.490658    1.668381   -1.062716
H      6.744170   -2.835185   -0.338713
H      8.541706   -4.461402   -0.789759
H     10.887766   -3.719351   -1.012122
H     11.464058   -1.320367   -0.802757
H     11.481878    1.391009   -0.555840
H     10.964390    3.780682   -0.165028
H      8.660500    4.482993    0.385351
H      6.841109    2.825846    0.535875
H      5.966452   -1.696669    1.615763
H      3.557294   -1.739032    1.985164
H      1.739834   -0.145534    3.106287
H     -3.058982    0.020545   -0.449632
