  82
 
 F         -1.4502106518       -5.9157090393       -0.5233259555
 C         -2.6282717332       -5.5555126341       -1.0838026336
 F         -3.5362277195       -6.4252734108       -0.6119562278
 F         -2.4987150227       -5.8235166557       -2.3963003739
 C         -2.9741685618       -4.1224903358       -0.8101027317
 C         -3.8274012906       -3.7975197845        0.2370788330
 C         -4.1172272591       -2.4717675274        0.4955423241
 C         -3.5551869662       -1.4697592144       -0.2920896678
 N         -3.8566426848       -0.1246900616       -0.0415909850
 C         -2.9700651071        0.9182596441        0.0991254150
 C         -1.5222216600        0.7903812274        0.1101825053
 C         -0.7529562013        1.8245921822       -0.4241281419
 C          0.6237397187        1.7478093921       -0.4205284317
 C          1.2762208998        0.6388876561        0.1186540606
 C          2.7426649892        0.5519469971        0.1130297868
 C          3.3847334765       -0.6533815065       -0.1677673433
 C          4.7625977597       -0.7364227844       -0.1825329236
 C          5.5341673879        0.3872267443        0.1017389840
 N          6.9344085608        0.3050576052        0.0967884813
 C          7.7903686040        1.1457688599       -0.5864898717
 C          7.4982864373        2.1983638095       -1.4428999244
 C          8.5564004588        2.8697961645       -2.0252029686
 C          9.8774085234        2.5041253693       -1.7729799881
 C         10.1736735867        1.4426777902       -0.9409639693
 C          9.1268308286        0.7511683470       -0.3442860360
 C          9.0638460553       -0.3831893202        0.5348177936
 C         10.0278866539       -1.1870779695        1.1301031754
 C          9.6162178962       -2.2092389423        1.9622144741
 C          8.2629827360       -2.4260544704        2.2154127991
 C          7.2855220631       -1.6401686304        1.6352797100
 C          7.6919375983       -0.6261235377        0.7789657278
 C          4.9022360582        1.5936668811        0.3918077063
 C          3.5242746389        1.6732824391        0.3880807745
 C          0.5038461745       -0.3814635660        0.6721481539
 C         -0.8741474994       -0.3071775707        0.6760662530
 N         -3.6025549003        2.0482935244        0.2778729488
 C         -4.9384196254        1.7723684295        0.2587307999
 C         -5.9166758261        2.8426213687        0.3945694444
 C         -5.5580281431        4.0040361547        1.0783966219
 C         -6.4608863380        5.0399737779        1.2222266575
 C         -7.7327240139        4.9351699941        0.6817879152
 C         -8.0911689380        3.7917668999       -0.0140444365
 C         -7.1910884402        2.7529638489       -0.1627059191
 C         -5.1243305319        0.4139825709        0.0723934369
 C         -6.3366310650       -0.3923311356       -0.0124257351
 C         -6.5332922977       -1.2829277272       -1.0666430830
 C         -7.6833239427       -2.0485446449       -1.1276306740
 C         -8.6495168413       -1.9356788219       -0.1416196251
 C         -8.4644702340       -1.0470109015        0.9060362424
 C         -7.3166481054       -0.2802779832        0.9736287264
 C         -2.6987631189       -1.8027243106       -1.3403778169
 C         -2.4034446148       -3.1265632269       -1.5955962513
 H         -4.2620984221       -4.5764071057        0.8438301662
 H         -4.7747752818       -2.2105899419        1.3096998097
 H         -1.2578608698        2.6812493465       -0.8435972736
 H          1.2029722109        2.5461109711       -0.8599891653
 H          2.7979467018       -1.5281940435       -0.4060113671
 H          5.2500408860       -1.6681727249       -0.4286967999
 H          6.4779740048        2.4787141817       -1.6570811084
 H          8.3552245093        3.6943296529       -2.6937612714
 H         10.6773436077        3.0560153678       -2.2447481904
 H         11.1971769028        1.1504719430       -0.7583679229
 H         11.0773254096       -1.0102680018        0.9465810924
 H         10.3503220697       -2.8469663670        2.4327982651
 H          7.9719294964       -3.2242571870        2.8829422720
 H          6.2406982992       -1.8055128062        1.8509650978
 H          5.4976884833        2.4614688346        0.6337427465
 H          3.0457506059        2.6098864392        0.6326691468
 H          0.9895624406       -1.2306573982        1.1296446618
 H         -1.4461281769       -1.0961345111        1.1420341522
 H         -4.5629592057        4.0740524253        1.4909577906
 H         -6.1730741097        5.9334017743        1.7577803467
 H         -8.4401478062        5.7436306564        0.7966326187
 H         -9.0770504144        3.7104517632       -0.4492455660
 H         -7.4728927026        1.8733893666       -0.7221650366
 H         -5.7909251619       -1.3634867525       -1.8479746800
 H         -7.8256255551       -2.7338980986       -1.9503784451
 H         -9.5459663966       -2.5356887790       -0.1909510778
 H         -9.2164606700       -0.9531760352        1.6756634654
 H         -7.1680205760        0.4122445414        1.7894400176
 H         -2.2690114517       -1.0228289424       -1.9495952982
 H         -1.7438025995       -3.3907685335       -2.4075064829
