  69
 
 N        -11.9074043592        0.1076132252        0.0516731890
 C        -10.7571046740        0.0872801509        0.0430701811
 C         -9.3513363401        0.0629316063        0.0328900635
 C         -8.6496301062        0.2797773514       -1.1601910472
 C         -7.2746725124        0.2659827278       -1.1623438006
 C         -6.5482768255        0.0181536346        0.0136498794
 C         -5.0945433689       -0.0027128906        0.0038911609
 C         -4.3678487401        1.1021588490       -0.5384557383
 C         -5.0139036340        2.2620647443       -0.9841674027
 C         -4.3169133073        3.2881520533       -1.6099587539
 C         -2.9558457995        3.1670973097       -1.8134644744
 C         -2.2789200114        2.0597839679       -1.3158510760
 C         -2.9437615703        1.0491163075       -0.6121958286
 C         -2.2365058901       -0.0417656830       -0.0136232176
 C         -0.7876984412       -0.0582337997       -0.0189360511
 C         -0.0488942589        1.0500053282        0.4319775100
 C          1.3241817971        1.0325606672        0.4437470515
 C          2.0238973708       -0.0864173654       -0.0285273243
 C          3.4574709799       -0.1129623123       -0.0421131257
 N          4.2060846249       -1.0878242291       -0.4907628231
 C          5.4899367890       -0.6687778266       -0.3051869913
 C          6.7227363502       -1.3118832487       -0.6126491602
 C          6.7590140926       -2.5789367682       -1.2037644279
 C          7.9616810485       -3.1754859872       -1.4941088081
 C          9.1468313290       -2.5070846197       -1.1934516872
 C          9.1237885857       -1.2603828548       -0.6116675331
 C          7.9166445627       -0.6156215996       -0.2993138090
 C          7.8717083069        0.7013630475        0.3145900118
 C          9.0271462713        1.4236896080        0.6469244921
 C          8.9606791141        2.6692562802        1.2287160290
 C          7.7300466726        3.2608542070        1.5106595267
 C          6.5732614719        2.5906905742        1.2017360225
 C          6.6280906475        1.3214388845        0.6086330693
 C          5.4646679105        0.5918145620        0.2739777704
 O          4.1680362773        0.9479369892        0.4407453536
 C          1.2982988064       -1.1918136696       -0.4957896529
 C         -0.0738793546       -1.1818727685       -0.4748288921
 C         -2.9655951478       -1.1145878275        0.5913440747
 C         -2.3199782251       -2.1450069951        1.2841413301
 C         -3.0213051536       -3.2334274068        1.7896455749
 C         -4.3879832176       -3.3154249866        1.6051047790
 C         -5.0641365716       -2.2691775710        0.9899436867
 C         -4.3915290412       -1.1276493841        0.5361278335
 C         -7.2659514236       -0.2077900480        1.1993517366
 C         -8.6405558489       -0.1772382670        1.2161000153
 H         -9.1986742811        0.4521718524       -2.0747555250
 H         -6.7402471714        0.4081505131       -2.0900215558
 H         -6.0773398764        2.3684909937       -0.8360263271
 H         -4.8470399843        4.1659343645       -1.9480371563
 H         -2.4096241046        3.9339955698       -2.3420261252
 H         -1.2166745905        1.9770303305       -1.4850749824
 H         -0.5766691048        1.9073312012        0.8234915305
 H          1.8776019363        1.8795466182        0.8214764934
 H          5.8193599482       -3.0632711315       -1.4218478960
 H          7.9921788472       -4.1531634294       -1.9515138042
 H         10.0951969991       -2.9721551058       -1.4201916242
 H         10.0646427410       -0.7797184223       -0.3974276203
 H         10.0002430894        1.0049488548        0.4481700327
 H          9.8728796075        3.1945566941        1.4707735246
 H          7.6902127176        4.2380120051        1.9683481411
 H          5.6043035290        3.0214028440        1.4079615063
 H          1.8452151900       -2.0411892719       -0.8738579540
 H         -0.6220845359       -2.0275151060       -0.8630256425
 H         -1.2534649761       -2.0936024111        1.4378204589
 H         -2.4896236392       -4.0166673371        2.3089122452
 H         -4.9382013798       -4.1781563961        1.9496785306
 H         -6.1321289148       -2.3449688150        0.8564663040
 H         -6.7237468584       -0.3674270052        2.1196425060
 H         -9.1824158537       -0.3321146406        2.1380742542
