  67
 
 C          8.8072734859        3.5913384503       -0.0855869527
 C          8.9616005095        2.3781179526       -0.7377224237
 C          7.9453441293        1.4409321856       -0.7173178826
 C          6.7605771379        1.7094450565       -0.0343169406
 C          5.6619460017        0.7525366408       -0.0069241873
 N          4.3667767585        1.1840403413       -0.0087932479
 C          3.6284804474        0.1143483977       -0.0385216315
 C          2.1824760390        0.0350777886       -0.0442811234
 C          1.5431294488       -1.2064654819        0.0396331006
 C          0.1638775190       -1.2430420995        0.0402651191
 C         -0.5555364690       -0.0495625175       -0.0471393322
 C         -2.0205645485       -0.0264184729       -0.0434932359
 C         -2.7222839590        0.8356975850       -0.8856663451
 C         -4.1021552981        0.8568289297       -0.8837944473
 C         -4.8156193596        0.0289770563       -0.0191312351
 N         -6.2155436420        0.0581780175       -0.0049114473
 C         -7.0488055111       -1.0425410237       -0.0714201426
 C         -6.7313378150       -2.3859644934       -0.2159932743
 C         -7.7722485409       -3.2927775275       -0.2827972133
 C         -9.1017699764       -2.8805835136       -0.2191437678
 C         -9.4247304639       -1.5429979135       -0.1027176563
 C         -8.3954033716       -0.6129459834       -0.0311867674
 C         -8.3642674910        0.8197598796        0.0713788434
 C         -9.3521446153        1.7918281458        0.1660043373
 C         -8.9709966707        3.1146279512        0.2745804557
 C         -7.6243059620        3.4709470271        0.3081244372
 C         -6.6237222445        2.5217152217        0.2178089375
 C         -7.0004181942        1.1928842349        0.0805543003
 C         -4.1210926300       -0.8277640653        0.8323723215
 C         -2.7417153428       -0.8613224197        0.8096506964
 C          0.1909743996        1.1311421903       -0.1271288886
 N          1.5045328492        1.1795792244       -0.1243486468
 O          4.3542161633       -1.0260786417       -0.0529119522
 C          5.6558081021       -0.6319867482       -0.0226830558
 C          6.6859896314       -1.6534651905        0.0331071813
 C          6.4600973817       -2.8960313170       -0.5611119915
 C          7.4275313858       -3.8814256183       -0.5064842704
 C          8.6266554871       -3.6441493631        0.1458145394
 C          8.8506270300       -2.4179700999        0.7532542291
 C          7.8892750504       -1.4269048948        0.7030012122
 C          6.6027680176        2.9398921219        0.6005661729
 C          7.6236461432        3.8716708715        0.5780808222
 H          9.6053618303        4.3190062720       -0.1015358027
 H          9.8769457949        2.1622145575       -1.2693107803
 H          8.0612874671        0.5030299312       -1.2402815887
 H          2.1282383296       -2.1108894782        0.1017902870
 H         -0.3565619158       -2.1885062180        0.0890323514
 H         -2.1796301482        1.4711440238       -1.5695073746
 H         -4.6362590929        1.5040462580       -1.5631056792
 H         -5.7058218844       -2.7155253423       -0.2862206619
 H         -7.5499133833       -4.3445681980       -0.3905226468
 H         -9.8873631176       -3.6201130660       -0.2723005357
 H        -10.4552475581       -1.2219103900       -0.0709783498
 H        -10.3955885755        1.5138917079        0.1578516939
 H         -9.7235006775        3.8863863999        0.3452777844
 H         -7.3557908929        4.5123983811        0.4106060310
 H         -5.5841153452        2.8085346781        0.2648936447
 H         -4.6686758216       -1.4529436862        1.5215694048
 H         -2.2144193638       -1.5171199631        1.4864727708
 H         -0.3033272655        2.0927679096       -0.1770677819
 H          5.5251395810       -3.0752285815       -1.0718505094
 H          7.2453407771       -4.8370162116       -0.9759677551
 H          9.3826387835       -4.4141220542        0.1855413723
 H          9.7788935167       -2.2340581925        1.2735144899
 H          8.0567316461       -0.4782185853        1.1895207732
 H          5.6716365530        3.1471542365        1.1056421198
 H          7.4950547501        4.8204757264        1.0782650962
