  68
 
 O         -2.9323988884        0.7950187677       -2.0385024730
 P         -3.5544374645        0.5118628604       -0.7303514497
 C         -5.1980588289       -0.2632036950       -0.8774124044
 C         -5.4216652692       -1.0562969918       -1.9949721393
 C         -6.6416211142       -1.6859363042       -2.1657558343
 C         -7.6400016452       -1.5224965718       -1.2183611974
 C         -7.4199530059       -0.7269251648       -0.1047805415
 C         -6.2004588459       -0.0963343544        0.0694123975
 C         -3.8211572037        2.0173871637        0.2642406580
 C         -3.7686236937        2.0335092731        1.6517221910
 C         -4.0003752292        3.2160068860        2.3328738265
 C         -4.2846570632        4.3786665715        1.6340392377
 C         -4.3327578164        4.3643596096        0.2488312434
 C         -4.0998623088        3.1845852158       -0.4349554794
 C         -2.5651107565       -0.6142794454        0.3001817029
 C         -3.1388758750       -1.4158647139        1.2924966180
 C         -2.3644740729       -2.2535878509        2.0688271942
 C         -0.9953982567       -2.2752984075        1.8355090938
 N         -0.0151238754       -3.0042229557        2.4542524337
 C          1.1983104025       -2.7062515855        1.8927385797
 C          2.4602458378       -3.2026035104        2.1933138671
 C          3.5258552714       -2.7179035524        1.4640665358
 C          3.3497854330       -1.7636522885        0.4566176057
 P          4.8673776633       -1.2028499471       -0.3780520258
 O          5.8903770582       -2.2606757524       -0.4918853825
 C          5.4433236274        0.2389198537        0.5781817849
 C          4.5827450730        1.0653798542        1.2891695160
 C          5.0896811297        2.1554723762        1.9746577954
 C          6.4499594258        2.4209183645        1.9527284664
 C          7.3101052028        1.5927879662        1.2489914057
 C          6.8064210646        0.5024651683        0.5622663809
 C          4.3512750180       -0.5348246569       -1.9924594705
 C          4.5500496737       -1.3421928283       -3.1042033422
 C          4.1734864258       -0.8988518871       -4.3597129836
 C          3.5962848692        0.3527278281       -4.5040039864
 C          3.4024109808        1.1625071306       -3.3955826859
 C          3.7801806882        0.7233549054       -2.1390972541
 C          2.0926135671       -1.2705955475        0.1475507589
 C          1.0069724105       -1.7446103844        0.8692282108
 C         -0.4038411223       -1.4683552857        0.8311398016
 C         -1.2005274272       -0.6360343315        0.0601898141
 H         -4.6302306082       -1.1590335139       -2.7250117021
 H         -6.8142376658       -2.3019115908       -3.0362522626
 H         -8.5937437252       -2.0118943875       -1.3507237906
 H         -8.2018944634       -0.5957099694        0.6290765678
 H         -6.0276543474        0.5325629210        0.9314756798
 H         -3.5405787658        1.1258195617        2.1920332987
 H         -3.9578900191        3.2306842474        3.4123043608
 H         -4.4655131419        5.2988327524        2.1699736936
 H         -4.5503990064        5.2709412383       -0.2967586974
 H         -4.1217149539        3.1496100009       -1.5158601715
 H         -4.2081796018       -1.3823820360        1.4412862431
 H         -2.8107612267       -2.8749979376        2.8304735188
 H         -0.1634539445       -3.6673458537        3.1976004875
 H          2.6030982938       -3.9402701667        2.9683418211
 H          4.5286561313       -3.0762610143        1.6508452874
 H          3.5240125807        0.8478686163        1.3113857076
 H          4.4216987504        2.7986587269        2.5290081721
 H          6.8413665114        3.2725038504        2.4896647528
 H          8.3709155477        1.7961441758        1.2361895904
 H          7.4574809589       -0.1643095946        0.0132975056
 H          5.0102825554       -2.3110192692       -2.9658692852
 H          4.3300706633       -1.5278068934       -5.2239213276
 H          3.3005225787        0.7009307237       -5.4827663139
 H          2.9568105885        2.1398752150       -3.5112090730
 H          3.6426844279        1.3571275078       -1.2745803946
 H          1.9587068477       -0.5433980066       -0.6392323312
 H         -0.7881380252       -0.0173000859       -0.7239068068
