  77
 
 C         -4.6445816999        1.4335785381       -0.7721143442
 C         -5.7879338717        0.6951089381       -0.0656610042
 C         -5.8763415289        1.1316332308        1.4006341896
 C         -7.0965981501        0.9548420371       -0.7803743775
 C         -7.7553736869        2.1512367235       -0.9709829522
 C         -8.9572152889        2.1514870257       -1.6666667445
 C         -9.4894577574        0.9719258975       -2.1651509872
 C         -8.8336030957       -0.2342367241       -1.9786060778
 C         -7.6351305409       -0.2364557902       -1.2831571667
 C         -6.7427655915       -1.3294213579       -0.9307130625
 C         -6.8498473872       -2.6838253684       -1.1982448822
 C         -5.8555606174       -3.5294222468       -0.7351547111
 C         -4.7851570797       -3.0255848360       -0.0172513295
 C         -4.6682459961       -1.6618079454        0.2584030321
 C         -3.5038146784       -1.2114381511        1.0561491113
 C         -3.5678678716       -1.2182514839        2.4534857746
 C         -2.4810996225       -0.8325603694        3.2027011200
 C         -1.2960838157       -0.4326402275        2.5816266622
 S          0.0068083772        0.0388889762        3.6458162195
 C          1.2957869334        0.4761695812        2.5505782636
 C          2.4795759643        0.9215109397        3.1423850714
 C          3.5547267283        1.2881052752        2.3670351942
 C          3.4802129636        1.2139002401        0.9723970988
 C          4.6262330479        1.6476962284        0.1396850274
 C          4.6899758834        2.9909407898       -0.2357760178
 C          5.7338972920        3.4789152149       -1.0018245857
 C          6.7536683682        2.6377963521       -1.4149633077
 C          6.6997332644        1.3037970182       -1.0476502659
 C          5.6405071373        0.7996465712       -0.2746080056
 C          5.8259612383       -0.6856278542       -0.0291019349
 C          4.6990455619       -1.5081453820       -0.6655406752
 C          5.9484212096       -1.0165235992        1.4621971600
 C          7.1338011813       -0.9510560683       -0.7430259438
 C          7.8300947741       -2.1355903885       -0.8600616008
 C          9.0236318646       -2.1444785789       -1.5697714659
 C          9.5100248593       -0.9854367597       -2.1555480457
 C          8.8155452440        0.2084162937       -2.0444543163
 C          7.6254991719        0.2194356332       -1.3347510040
 C          2.3025925761        0.7872451719        0.3941032358
 C          1.1915026263        0.4053260123        1.1592273117
 C         -0.0048494061       -0.0392137459        0.4280992848
 O         -0.0054395456       -0.0794397008       -0.8016403511
 C         -1.2014602774       -0.4317877891        1.1878220313
 C         -2.3239560776       -0.8334232090        0.4495892561
 C         -5.6558614698       -0.8092336964       -0.2082179355
 H         -4.5586181415        1.0989820250       -1.8043449226
 H         -3.6999311674        1.2499389931       -0.2667472316
 H         -4.8364925255        2.5041469906       -0.7713291358
 H         -4.9328761135        0.9503475948        1.9086027280
 H         -6.1027760402        2.1937113316        1.4582113671
 H         -6.6644696636        0.5815131390        1.9109346635
 H         -7.3515449662        3.0776018513       -0.5883768643
 H         -9.4841508648        3.0821537150       -1.8215733758
 H        -10.4254923078        0.9949201250       -2.7048591720
 H         -9.2498195227       -1.1516672094       -2.3681015264
 H         -7.6893416545       -3.0720839935       -1.7551818795
 H         -5.9135509879       -4.5902504366       -0.9316457140
 H         -4.0170083918       -3.6957005421        0.3424353860
 H         -4.4793274566       -1.5287513731        2.9419453762
 H         -2.5273985185       -0.8329637873        4.2813115782
 H          2.5336865374        0.9742055558        4.2193812564
 H          4.4638397212        1.6375057863        2.8329938353
 H          3.9002765546        3.6567003365        0.0830352672
 H          5.7508901150        4.5238223024       -1.2760329651
 H          7.5721126638        3.0141560994       -2.0101322014
 H          4.5963713808       -1.2566467459       -1.7195616474
 H          3.7531234294       -1.3118992435       -0.1672164128
 H          4.9212104388       -2.5696640834       -0.5839700382
 H          6.2212733883       -2.0616241923        1.5884293843
 H          6.7175442778       -0.4000749378        1.9233864530
 H          5.0032903351       -0.8415270959        1.9691165887
 H          7.4614656525       -3.0461135697       -0.4099191693
 H          9.5798498271       -3.0658369504       -1.6674375516
 H         10.4406823893       -1.0147061058       -2.7042269164
 H          9.1962386202        1.1098024714       -2.5018038953
 H          2.2023634990        0.7364554859       -0.6809932188
 H         -2.2304247182       -0.8384579524       -0.6272509946
