  41
 
 C         -5.3844559501        2.6872701535        0.2955923171
 C         -4.1427849470        3.1431057199       -0.1182081566
 C         -3.0742433249        2.2727909867       -0.1956524799
 C         -3.2296980389        0.9263164150        0.1365222238
 C         -2.0814506242        0.0425592158        0.0391436152
 N         -0.8255903505        0.5217014842        0.1614133843
 C          0.0132100187       -0.4901867011        0.0658762899
 C          1.4529033881       -0.3542637762        0.2026710970
 C          2.2250632082       -1.3187419118        0.8897669523
 C          3.5747509134       -1.1639976224        1.0166690941
 C          4.2339355393       -0.0400305451        0.4755215359
 C          5.6276500381        0.1392561412        0.5837903578
 C          6.2305677648        1.2500645164        0.0629446560
 C          5.4663288842        2.2321291522       -0.5875947964
 C          4.1131192259        2.0875757747       -0.7084749173
 C          3.4597710795        0.9511964529       -0.1844339759
 C          2.0709042070        0.7678672656       -0.3027473220
 N         -0.6619021687       -1.6583511487       -0.1585382323
 C         -0.2253848013       -2.9175700563       -0.4418422812
 C         -1.1207864786       -3.9006627734       -0.7025512159
 C         -2.5103393614       -3.6217691464       -0.7136719892
 C         -2.9504980273       -2.3545653449       -0.4720764920
 C         -2.0240941685       -1.3388846039       -0.1811131120
 C         -4.4763304052        0.4821698024        0.5745313701
 C         -5.5436055420        1.3575399856        0.6480831352
 H         -6.2221454172        3.3669116447        0.3528192247
 H         -4.0106645509        4.1826198851       -0.3819577958
 H         -2.1009517751        2.6144084139       -0.5117215250
 H          1.7352395390       -2.1625935361        1.3544408819
 H          4.1595773078       -1.9016804142        1.5483543491
 H          6.2112673207       -0.6185087394        1.0875927335
 H          7.2993700535        1.3815260801        0.1489435196
 H          5.9601678930        3.1038231213       -0.9918027257
 H          3.5200085750        2.8401096575       -1.2078225271
 H          1.4738854302        1.5168369000       -0.8003856233
 H          0.8418040467       -3.0687710502       -0.4745742280
 H         -0.7714870049       -4.8958839507       -0.9246253286
 H         -3.2057326250       -4.4143325284       -0.9393826399
 H         -3.9976513244       -2.1057597555       -0.5237207499
 H         -4.6044880261       -0.5428106872        0.8883927892
 H         -6.5052405209        1.0015875237        0.9898305874
