  38
 
 O         -1.2780872259        2.8309983182        0.0190218323
 C         -2.3077611893        1.9765745188        0.0033357362
 C         -3.5972055500        2.4855797434        0.0014825224
 C         -4.7037058001        1.6487995103       -0.0154274739
 C         -4.4961231068        0.2709105178       -0.0309077051
 Br        -6.0184622220       -0.8902448517       -0.0568050302
 C         -3.2422099633       -0.2819449339       -0.0287707736
 C         -2.0974907382        0.5544079775       -0.0110950061
 C         -0.7927385141        0.0359504477       -0.0079965539
 N          0.3324076682        0.8075774209        0.0023043355
 C          1.3710738834       -0.0165773001        0.0000330449
 C          0.9278318988       -1.3758773423       -0.0108559985
 C          1.8135029297       -2.4205443857       -0.0141467145
 C          3.1918988279       -2.1079261940       -0.0082178294
 C          3.6841062067       -0.8098736847        0.0004025751
 C          5.1066212038       -0.5097071209        0.0037761482
 C          6.0940172650       -1.4949245400       -0.0018182849
 C          7.4407682048       -1.1749076726        0.0004840528
 C          7.8518403050        0.1567363087        0.0085462254
 C          6.9108395112        1.1539075899        0.0145677706
 C          5.5279756483        0.8542038040        0.0122750831
 C          4.5801182501        1.8894325304        0.0179909531
 C          3.2195241221        1.6069904587        0.0145195493
 C          2.7708853742        0.2954852235        0.0056381759
 N         -0.4402462866       -1.3040850642       -0.0162134266
 H         -0.4367689884        2.2971286947        0.0165285079
 H         -3.7230918240        3.5564674210        0.0130386342
 H         -5.7014643763        2.0554067294       -0.0171641217
 H         -3.1288939385       -1.3540632967       -0.0415145620
 H          1.4881528075       -3.4485417069       -0.0213597525
 H          3.8734233199       -2.9422693500       -0.0113141749
 H          5.8210692687       -2.5379893512       -0.0081723492
 H          8.1765808110       -1.9653403489       -0.0041331672
 H          8.9047457255        0.3968305252        0.0101062461
 H          7.2092697332        2.1920722470        0.0208578817
 H          4.9186927540        2.9143318545        0.0245660975
 H          2.4929899222        2.4053479271        0.0182793335
 H         -1.0734641674       -2.0835221771       -0.0225268951
