  52
 
 O          7.7746282549       -0.1881615122       -1.1643413994
 C          7.1995248309       -0.0200431232        0.1090911567
 C          5.6912338305       -0.0094004908        0.1057472654
 C          4.9864010066        0.6547384957        1.1033358606
 C          3.6067164990        0.6607891004        1.1050726125
 C          2.8857551649       -0.0046492360        0.1096234849
 C          1.4234043840       -0.0019617787        0.1120918902
 C          0.7141003451        1.2398150821        0.0873985225
 C          1.3786318257        2.4635972829       -0.0104260258
 C          0.6869613051        3.6740650180        0.0403349978
 C         -0.6804887345        3.6749433903        0.1946612125
 C         -1.3742266439        2.4654918213        0.2413593944
 C         -0.7114618262        1.2410807866        0.1398586382
 C         -1.4230720625        0.0005452576        0.1119572515
 C         -2.8854216709        0.0032567450        0.1093159257
 C         -3.6065241202       -0.6623217636        1.1045683701
 C         -4.9862085489       -0.6561744006        1.1026988027
 C         -5.6909001718        0.0082046359        0.1051703104
 C         -7.1991908903        0.0189796294        0.1083956379
 O         -7.7741838293        0.1874369951       -1.1650445193
 C         -4.9804895945        0.6703537635       -0.8888244061
 C         -3.6002505330        0.6723016684       -0.8867835330
 C         -0.7137659279       -1.2412271611        0.0871250500
 C         -1.3782899969       -2.4649934241       -0.0109582225
 C         -0.6866213957       -3.6754711139        0.0396472751
 C          0.6808189062       -3.6763753861        0.1940727141
 C          1.3745530796       -2.4669297867        0.2410357323
 C          0.7117928299       -1.2425013057        0.1397054490
 C          3.6007245464       -0.6734823742       -0.8865169962
 C          4.9809642029       -0.6714314906       -0.8884271732
 H          7.4488617099        0.5094302838       -1.7441205763
 H          7.5578497123       -0.8704672064        0.7002312469
 H          7.5729673663        0.9001982366        0.5844890135
 H          5.5268566851        1.1673411787        1.8867698447
 H          3.0703608557        1.1637939200        1.8966728298
 H          2.4509651119        2.4776340110       -0.1315878262
 H          1.2337486136        4.6025528679       -0.0298899430
 H         -1.2258580411        4.6039186277        0.2680897110
 H         -2.4463957765        2.4811859210        0.3630403407
 H         -3.0702808296       -1.1655095261        1.8961287726
 H         -5.5267764476       -1.1688924660        1.8859810712
 H         -7.5574742741        0.8693123059        0.6996972081
 H         -7.5727557967       -0.9013311174        0.5835691674
 H         -7.4484561594       -0.5100680361       -1.7449560571
 H         -5.5223880516        1.1894087616       -1.6664136720
 H         -3.0606286922        1.1751604900       -1.6762985440
 H         -2.4506137127       -2.4790090866       -0.1322072065
 H         -1.2334027835       -4.6039473239       -0.0307780861
 H          1.2261828520       -4.6053633445        0.2673825371
 H          2.4467135333       -2.4826424571        0.3627921868
 H          3.0612156291       -1.1762128512       -1.6761885394
 H          5.5229743075       -1.1902943984       -1.6660650723
