56
 xtb: 6.7.1 (edcfbbe)
C           -8.57349555137744        4.03767441103800        0.06210208060185
C           -7.92725325487960        2.74696171231979        0.55414184403631
C           -7.80254281618629        1.70978293467130       -0.56056025981018
C           -7.14732293083651        0.41790034896744       -0.07572744433740
C           -7.03622248622060       -0.61902507683972       -1.19090609650260
C           -6.37215917322798       -1.92033917622508       -0.71511084872500
C           -4.94310753331232       -1.69977963967786       -0.32036790915842
C           -4.55435085152487       -1.65804797700363        1.01744063011620
C           -3.24468990283447       -1.42383957840191        1.36747823045236
C           -2.24843768588143       -1.21498268277215        0.39300552776048
C           -0.90729739098760       -0.97399408354254        0.81523257590042
C            0.17234044630053       -0.72845696118325        0.00331049360713
C            1.50478572614118       -0.49603097366280        0.41313210204551
C            1.93547971561448       -0.49522727312638        1.75615645216291
C            3.24283797379868       -0.26890059575507        2.08828482117356
C            4.23535203381541       -0.02277835956684        1.10140435090771
C            5.56079392413586        0.20433616249098        1.42192012887942
C            6.54646304841866        0.44966998586448        0.42652807458702
C            7.88326295450273        0.67669505605758        0.74780988601764
C            8.82749345106084        0.91503794992892       -0.24655382897525
C            8.44507476034030        0.93128995106111       -1.58059902319344
C            7.12467856966535        0.70863027778190       -1.93035262591155
C            6.14782271039463        0.46312411534357       -0.94653161862885
C            4.80429657873590        0.23207789205657       -1.27046866848659
C            3.82492250166059       -0.01465390347576       -0.27576526835559
C            2.49710822002111       -0.24694001848050       -0.58859120297001
C           -2.65277985598364       -1.26387465967174       -0.95548841982793
C           -3.96380061668663       -1.50159676152769       -1.29452825465405
H           -8.68905754912877        4.72599420844832        0.92987434104727
H           -8.03077753717112        4.46825553662772       -0.68733982051098
H           -9.61198010240677        3.81027744941416       -0.26381328722710
H           -8.53459801739863        2.29301042582344        1.40123659982395
H           -6.95340973926684        2.95055039144409        0.97927122329763
H           -8.81565188236916        1.47089013813011       -0.93163440121652
H           -7.23640891621060        2.13236551338291       -1.35551765911225
H           -7.73328634542565       -0.02003959756636        0.74929597683638
H           -6.15504058795792        0.63723147974679        0.31155106585732
H           -8.03555363968352       -0.84915734066589       -1.57686661725132
H           -6.46016673136983       -0.18541379114898       -2.01862620764900
H           -6.92638256118930       -2.33086469784997        0.10554997020072
H           -6.40468254146031       -2.63874120655931       -1.55806923966996
H           -5.29279173718120       -1.81605253949834        1.77033351280050
H           -2.96742653009483       -1.39175628289334        2.39738256996710
H           -0.76060360515734       -0.96089891712527        1.87665756070811
H            0.02114795745120       -0.71431162657544       -1.07618936919878
H            1.20617861601160       -0.60589055698057        2.53915042230102
H            3.52950564923374       -0.19113972503932        3.12667565653258
H            5.85607156098582        0.25851828767141        2.46397736876954
H            8.17882085501821        0.70535993551599        1.79540935552333
H            9.86556358886825        1.07753679953770        0.03491613502063
H            9.20355262284318        1.04388230491003       -2.34274728612146
H            6.85444993398079        0.63485596772619       -2.96729647424806
H            4.52338849747560        0.17812352996810       -2.31024270078916
H            2.20754775539546       -0.27975147634575       -1.63207017383421
H           -1.92214875841231       -1.09470102818208       -1.75205434036095
H           -4.23852207764185       -1.52334019440735       -2.35509178862130
