  94
 
 C         -5.8985806716       -5.3985917912        0.8349620151
 C         -5.1197589936       -4.6023766519        1.6593817228
 C         -4.7942860682       -3.3140101943        1.2774023851
 C         -5.2404835008       -2.8205497444        0.0546715251
 N         -4.9448039366       -1.4943129361       -0.3104484864
 C         -5.9227071231       -0.5352696054       -0.4922671568
 C         -7.2924364760       -0.7023171901       -0.6303432317
 C         -8.0597876623        0.4194808915       -0.8789582766
 C         -7.4706812972        1.6748378468       -1.0059999277
 C         -6.1134266728        1.8510940613       -0.8261936516
 C         -5.3233989352        0.7468905140       -0.5151623310
 C         -3.9242136408        0.5411793505       -0.2615742299
 C         -3.7237754460       -0.8641354225       -0.2275899604
 C         -2.4292576920       -1.4082011458       -0.2497949438
 C         -1.8756288383       -2.7172205430       -0.4776568295
 C         -2.3990028180       -3.9764444106       -0.7612912828
 C         -1.5372410167       -5.0307128536       -0.9905570048
 C         -0.1562323979       -4.8565218365       -0.9719654801
 C          0.3940532120       -3.6123874678       -0.7341050837
 C         -0.4691338715       -2.5560005652       -0.4848390276
 N         -0.1580822536       -1.2268444971       -0.2814602958
 C          1.1183976127       -0.7002385682       -0.5508989718
 C          1.2807121088        0.2167407653       -1.5858869660
 C          2.5348215667        0.7171838517       -1.8805200942
 C          3.6599764833        0.3101851349       -1.1630331967
 N          4.8813408596        0.7730921597       -1.4221278384
 C          5.9437320034        0.3805515396       -0.7270916458
 C          7.2478286222        0.8815791860       -1.0296376326
 C          7.3986440727        1.7997882432       -2.0828697312
 C          8.6317677834        2.3029903397       -2.4060133980
 C          9.7529940025        1.8978052019       -1.6798586545
 C          9.6246351652        1.0014259948       -0.6460181479
 C          8.3782391777        0.4652620803       -0.2868666790
 C          8.2089322507       -0.4796131478        0.7924473418
 C          9.2753774499       -0.9391814047        1.5807071161
 C          9.0824679531       -1.8407581224        2.5998772180
 C          7.8045462647       -2.3284565750        2.8784799115
 C          6.7394344592       -1.9004940153        2.1297448457
 C          6.9169385819       -0.9781763004        1.0841529722
 C          5.7780056066       -0.5564620830        0.3300240841
 N          4.5672508322       -1.0351583584        0.5957032006
 C          3.4930836614       -0.6519032970       -0.0955987881
 C          2.2179943820       -1.1338608039        0.1848503650
 C         -1.3265910070       -0.5202178971       -0.1434141874
 C         -1.5133408239        0.8498154055        0.1035535634
 C         -0.6594843610        1.9460494184        0.4706961236
 C          0.6763279467        2.0732459352        0.8456317047
 C          1.1619509621        3.3171820225        1.1949210898
 C          0.3372333823        4.4393165734        1.2114824205
 C         -1.0041096342        4.3351793155        0.9002365061
 C         -1.4907927608        3.0898231238        0.5315800592
 N         -2.7921517493        2.7275839480        0.2452061807
 C         -3.8809727417        3.5731150980        0.5382438218
 C         -4.0305343507        4.7753395823       -0.1447414534
 C         -5.0784435623        5.6208622934        0.1753679815
 C         -5.9749287254        5.2735044506        1.1728460025
 C         -5.8212473329        4.0781543479        1.8563185790
 C         -4.7750076250        3.2287828939        1.5467606453
 C         -2.8272072748        1.3741910234        0.0086993767
 C         -6.0179678588       -3.6214068726       -0.7763139866
 C         -6.3444752906       -4.9069297624       -0.3811982287
 H         -6.1547686789       -6.4025471180        1.1381462364
 H         -4.7688433476       -4.9832933271        2.6067681805
 H         -4.1903271407       -2.6857985042        1.9149947203
 H         -7.7474555703       -1.6776467285       -0.5536071863
 H         -9.1282969013        0.3172268982       -0.9974430669
 H         -8.0874244216        2.5278234719       -1.2476404043
 H         -5.6796231647        2.8283660450       -0.9499554941
 H         -3.4600763404       -4.1397684121       -0.8196195041
 H         -1.9446975697       -6.0082144130       -1.2025831295
 H          0.4926457773       -5.6981366945       -1.1638789008
 H          1.4625875064       -3.4619846909       -0.7574105598
 H          0.4212017592        0.5359007510       -2.1547639914
 H          2.6707846654        1.4287935809       -2.6796684709
 H          6.5120600281        2.0926587274       -2.6251792838
 H          8.7376453300        3.0078118974       -3.2174239180
 H         10.7267924852        2.2913595220       -1.9323083085
 H         10.5106774991        0.7091138702       -0.1054889195
 H         10.2751838158       -0.5824064542        1.3916582823
 H          9.9244237303       -2.1745505237        3.1885531945
 H          7.6587185410       -3.0379175480        3.6796122539
 H          5.7384690979       -2.2578990438        2.3199142464
 H          2.0939513053       -1.8269135319        1.0025081510
 H          1.3277057599        1.2174206417        0.8886537813
 H          2.2005880670        3.4179287488        1.4750796699
 H          0.7468220272        5.3973833429        1.4951319896
 H         -1.6562469611        5.1929806419        0.9597816909
 H         -3.3357896784        5.0316099123       -0.9311141436
 H         -5.1964961489        6.5513852439       -0.3599251498
 H         -6.7922645027        5.9348271529        1.4180301732
 H         -6.5162721461        3.8068555753        2.6366836528
 H         -4.6443328734        2.2979269607        2.0778629590
 H         -6.3408143732       -3.2416446757       -1.7342260103
 H         -6.9443329929       -5.5281817322       -1.0296910500
