  60
 
 C          1.2775169987        2.5119807980        0.7475913106
 C          0.2205781377        1.6246791583        0.8155638417
 C          0.4405854229        0.2574981767        0.6495669901
 C         -0.6965412402       -0.6651165577        0.7195677825
 C         -0.5828858738       -2.0177323229        1.0487000939
 N         -1.6264313187       -2.8307728189        0.9926858349
 C         -2.8003374404       -2.3239982742        0.6767477765
 C         -2.9556657660       -0.9453238674        0.4578563623
 N         -4.1792300751       -0.3642041197        0.1879365385
 C         -5.4206849243       -0.7799655300        0.6538454125
 C         -5.7448392437       -1.7335362601        1.6074555726
 C         -7.0815081408       -1.9217345961        1.9106656520
 C         -8.0805001972       -1.1742903355        1.2950823940
 C         -7.7624584360       -0.1924018126        0.3775490436
 C         -6.4273904373        0.0147176350        0.0613214487
 C         -5.7603129496        0.9638001185       -0.7883637072
 C         -6.2188710287        1.9785755924       -1.6171143158
 C         -5.2933411024        2.7307697032       -2.3132261345
 C         -3.9304171000        2.4749180979       -2.1927641529
 C         -3.4519194850        1.4687851974       -1.3733073027
 C         -4.3768412059        0.7169265909       -0.6669088487
 N         -1.8950932389       -0.1478869651        0.4534966944
 C          1.7309369617       -0.2026154231        0.4088342188
 C          2.7892359498        0.6944747677        0.3224354612
 N          4.0801897169        0.2258313147        0.0481342258
 C          4.4261543920       -0.6231156698       -0.9860126935
 C          3.6336274551       -1.1691169229       -1.9854630239
 C          4.2458058460       -1.9749579009       -2.9263322434
 C          5.6147769646       -2.2294584779       -2.8865709825
 C          6.4125326770       -1.6687104888       -1.9094886275
 C          5.8201556299       -0.8551695008       -0.9526098802
 C          6.3321870282       -0.1089137782        0.1625796256
 C          7.6007942610        0.0468222646        0.7053037329
 C          7.7484151561        0.8416330327        1.8242787145
 C          6.6486891425        1.4640123465        2.4107069454
 C          5.3767451879        1.3240425482        1.8891691630
 C          5.2260685333        0.5469128985        0.7497481234
 C          2.5596603569        2.0573127577        0.4964237330
 H          1.1017174943        3.5693901611        0.8778309279
 H         -0.7843198348        1.9707042311        0.9986130359
 H          0.3501713561       -2.4673867137        1.3539914443
 H         -3.6140613399       -3.0244734334        0.5638970672
 H         -4.9874563830       -2.3015653165        2.1245988327
 H         -7.3526920149       -2.6624178665        2.6480979124
 H         -9.1128693367       -1.3547486451        1.5543592672
 H         -8.5312498635        0.4113832702       -0.0800050187
 H         -7.2768706231        2.1700789300       -1.7127193544
 H         -5.6274350820        3.5275387847       -2.9610464776
 H         -3.2282876699        3.0768761617       -2.7504369028
 H         -2.3951512683        1.2792019760       -1.2802811567
 H          1.9229887672       -1.2561147609        0.2751448581
 H          2.5749941906       -0.9633339882       -2.0382863601
 H          3.6492465200       -2.4140920295       -3.7123366041
 H          6.0547701685       -2.8670995450       -3.6387766493
 H          7.4762449435       -1.8516218615       -1.8880525559
 H          8.4500744748       -0.4489233536        0.2598793872
 H          8.7267095317        0.9785457983        2.2604243714
 H          6.7926419197        2.0669526593        3.2951858532
 H          4.5286292220        1.7958422970        2.3623081912
 H          3.3828182135        2.7505938682        0.4125231512
