92

C     -8.525128   -7.358556    0.518531
C     -8.149215   -6.872825   -0.730956
C     -7.418644   -5.685383   -0.829652
C     -7.050517   -4.962377    0.317427
C     -6.281017   -3.710965    0.213737
C     -6.702602   -2.667927   -0.624712
C     -5.975292   -1.474839   -0.718558
C     -4.798943   -1.283518    0.023497
N     -4.054625   -0.049850   -0.065359
C     -4.754189    1.211496   -0.125950
C     -4.318668    2.241465   -0.974668
C     -4.989924    3.469517   -1.022937
C     -6.117968    3.711433   -0.224631
C     -6.815715    5.007617   -0.265771
C     -7.065845    5.731980    0.912149
C     -7.726139    6.963170    0.876269
C     -8.148880    7.491881   -0.340242
C     -7.911721    6.791024   -1.520001
C     -7.250613    5.559955   -1.482012
C     -6.556028    2.679624    0.619260
C     -5.887140    1.450513    0.667669
C     -2.611161   -0.072711   -0.072024
C     -1.903272   -1.051646   -0.787450
C     -0.502748   -1.073295   -0.789668
C      0.236951   -0.116496   -0.079447
C      1.707435   -0.136496   -0.079283
C      2.418016   -1.277139    0.317717
C      3.820551   -1.289728    0.334759
C      4.569628   -0.165174   -0.052811
C      6.049483   -0.151927   -0.039171
C      6.817616   -1.285176   -0.231842
C      8.191986   -1.138112   -0.187626
C      9.124207   -2.269199   -0.375964
C     10.333694   -2.327517    0.341541
C     11.228146   -3.390689    0.180507
C     10.933566   -4.419330   -0.708907
C      9.749172   -4.383258   -1.438579
C      8.855018   -3.318768   -1.274404
N      8.768850    0.059570    0.040657
C      7.959158    1.118963    0.203703
C      8.583114    2.438940    0.428004
C      9.981590    2.607058    0.396904
C     10.574149    3.857269    0.605058
C      9.779262    4.972854    0.850176
C      8.394876    4.839166    0.887463
C      7.806334    3.587228    0.679078
N      6.617102    1.054812    0.168885
C      3.846927    0.974406   -0.448118
C      2.446207    0.990004   -0.462114
C     -0.469888    0.862211    0.634400
C     -1.869387    0.883959    0.639148
C     -4.374886   -2.328383    0.860041
C     -5.103602   -3.520633    0.952810
C     -7.441176   -5.470785    1.567847
C     -8.171756   -6.657968    1.668605
H     -9.092729   -8.281974    0.596083
H     -8.420934   -7.417887   -1.630940
H     -7.125690   -5.331011   -1.815838
H     -7.615232   -2.769836   -1.209059
H     -6.332501   -0.696845   -1.389697
H     -3.454800    2.091766   -1.618285
H     -4.612576    4.245468   -1.686362
H     -6.733247    5.343210    1.872439
H     -7.906584    7.508191    1.799096
H     -8.662494    8.449234   -0.369030
H     -8.242680    7.199236   -2.471257
H     -7.085841    5.023862   -2.414604
H     -7.432438    2.822746    1.248628
H     -6.249710    0.684756    1.349544
H     -2.438789   -1.798322   -1.369422
H      0.007791   -1.840319   -1.368528
H      1.880974   -2.166926    0.642428
H      4.313106   -2.194354    0.684048
H      6.365038   -2.251674   -0.409268
H     10.585754   -1.531934    1.042273
H     12.154142   -3.408823    0.748698
H     11.630273   -5.244364   -0.839611
H      9.522828   -5.179088   -2.144334
H      7.951347   -3.311778   -1.879452
H     10.627497    1.751290    0.203783
H     11.656188    3.954948    0.573541
H     10.238116    5.945029    1.011362
H      7.768330    5.706507    1.078552
H      6.720515    3.510780    0.715609
H      4.379003    1.874585   -0.754746
H      1.936244    1.896413   -0.783264
H      0.066603    1.613317    1.211227
H     -2.377278    1.647448    1.224142
H     -3.478218   -2.215949    1.465413
H     -4.735945   -4.307629    1.608570
H     -7.186909   -4.933545    2.479377
H     -8.465502   -7.031971    2.645899
