34

O     -0.143083   -2.439568    0.499694
C     -0.602237   -1.338416    0.202561
C     -2.079396   -1.246307    0.118311
C     -2.850211   -2.416684    0.194632
C     -4.239897   -2.345813    0.156050
C     -4.867019   -1.106196    0.049171
C     -4.111578    0.073574   -0.025648
C     -4.737227    1.325141   -0.125941
C     -3.981201    2.493054   -0.200247
C     -2.591183    2.419366   -0.181930
C     -1.948457    1.175506   -0.083167
C     -2.696179    0.000067    0.002096
C     -0.466472    1.114969   -0.111901
O      0.115160    2.181673   -0.300224
N      0.116828   -0.153532    0.012365
C      1.521000   -0.180387    0.017312
N      2.305967    0.821764    0.352853
C      3.637347    0.490013    0.203486
C      4.735538    1.326208    0.489303
C      6.037582    0.854234    0.289555
C      6.247070   -0.434515   -0.190368
Cl     7.857329   -0.997068   -0.430048
C      5.177456   -1.283882   -0.484576
C      3.876814   -0.794568   -0.278456
S      2.369124   -1.569716   -0.547122
H     -2.369788   -3.389334    0.291379
H     -4.833733   -3.255004    0.216746
H     -5.954892   -1.068397    0.026955
H     -5.823114    1.400787   -0.146073
H     -4.474023    3.459461   -0.278153
H     -2.008532    3.337116   -0.251685
H      4.559114    2.331041    0.861500
H      6.880306    1.504120    0.512148
H      5.341588   -2.288704   -0.860578
