  58
 
 C          7.6695340370        1.6170036381        0.0964496423
 C          7.2702746923        0.3355749752        0.4391269858
 C          5.9288644025       -0.0014571658        0.4385332418
 C          4.9650910503        0.9449860589        0.0954304626
 C          3.5304085992        0.6253198924        0.0820989827
 C          3.0724998914       -0.6872010769       -0.1716629397
 C          1.7270446097       -0.9649686776       -0.1691084052
 C          1.2590443559       -2.3455706471       -0.3821818900
 C          1.6688604324       -3.0581891763       -1.5055941028
 C          1.2474584952       -4.3613366061       -1.6994812671
 C          0.4216291295       -4.9716433524       -0.7695233170
 C          0.0205984198       -4.2739065911        0.3581649494
 C          0.4344380572       -2.9683863149        0.5515962203
 C          0.8188698033        0.1075892747        0.0518993792
 C         -0.5793899870       -0.0290512867       -0.0030309376
 C         -1.3965554025        1.0516841773        0.2240765334
 N         -2.8028483890        0.8986613864        0.1893690397
 C         -3.4529321237        0.0978396718        1.1295576045
 C         -2.7761044466       -0.5212543078        2.1732117945
 C         -3.4516269134       -1.3116103224        3.0909258859
 C         -4.8166016413       -1.4880718571        2.9884322394
 C         -5.5126754885       -0.8530616282        1.9692955151
 C         -4.8432655490       -0.0626555719        1.0539363051
 O         -5.6063411761        0.5576675586        0.0908679895
 C         -4.9488885519        1.3490903720       -0.8239562350
 C         -5.7220753012        1.9609856233       -1.7924569397
 C         -5.1282880595        2.7540047850       -2.7647712462
 C         -3.7574324640        2.9134829056       -2.7678464285
 C         -2.9774180260        2.3008613075       -1.7982032923
 C         -3.5587863634        1.5267538482       -0.8013976392
 C         -0.8424629079        2.3182470111        0.5018100608
 C          0.5115926417        2.4861830632        0.5261020542
 C          1.3776478370        1.3941497332        0.2929549410
 N          2.7014020223        1.6212440218        0.3092826955
 C          5.3765392816        2.2366098063       -0.2331887636
 C          6.7175503170        2.5681747722       -0.2359392109
 H          8.7185905199        1.8745646963        0.0937769690
 H          8.0080225291       -0.4054583557        0.7115068207
 H          5.6331563349       -0.9980963094        0.7316694005
 H          3.7811926748       -1.4780543580       -0.3630660129
 H          2.3061409213       -2.5784426006       -2.2349241378
 H          1.5650126050       -4.9024768884       -2.5789859179
 H          0.0947889277       -5.9898864279       -0.9210181097
 H         -0.6170257171       -4.7471750295        1.0906913010
 H          0.1365645167       -2.4331083069        1.4417023887
 H         -1.0139946187       -0.9911150880       -0.2318048409
 H         -1.7117788574       -0.3765240928        2.2723353928
 H         -2.8983711594       -1.7834937101        3.8886653828
 H         -5.3478520207       -2.1050889184        3.6959144028
 H         -6.5822196621       -0.9546103981        1.8708166430
 H         -6.7888220991        1.8010828863       -1.7715184206
 H         -5.7404804226        3.2296759859       -3.5147434611
 H         -3.2790259102        3.5138032571       -3.5265008880
 H         -1.9057003423        2.4219796757       -1.8190307401
 H         -1.5075047338        3.1483248628        0.6901074044
 H          0.9563917360        3.4487704360        0.7246840805
 H          4.6236465428        2.9670552667       -0.4867614058
 H          7.0236189506        3.5705221164       -0.4982951592
