  64
 
 C          2.1356414651       -3.9226188677        0.0478192400
 C          0.6435927836       -3.5830582389       -0.0117005822
 C         -0.0447822113       -4.2586347215        1.1828054476
 C          0.0773278282       -4.1445924956       -1.3235041268
 C          0.3779375167       -2.0860740932        0.0369790694
 C          1.3977100020       -1.1542873191        0.0751145586
 C          1.1237565757        0.2172720813        0.0505004352
 C         -0.2040471704        0.6843637761        0.0208377676
 C         -1.2348223806       -0.2834404903        0.0767884586
 C         -0.9408588729       -1.6366860890        0.0339637657
 N         -2.5426265738        0.1809722498        0.1099303009
 C         -3.7334457635       -0.4931382706        0.3588767516
 C         -3.9817013751       -1.7266182677        0.9449191257
 C         -5.2956749219       -2.1353685453        1.0934354086
 C         -6.3591256105       -1.3369202630        0.6889534409
 C         -6.1290976068       -0.0797981051        0.1649474762
 C         -4.8197322658        0.3497219827        0.0138997178
 C         -4.2549635798        1.6036489822       -0.4054355152
 C         -4.7836436057        2.8048666855       -0.8466603366
 C         -3.9044433813        3.8345798395       -1.1461049576
 C         -2.5350846339        3.6928112105       -0.9733146152
 C         -1.9544993411        2.5086395416       -0.5073626015
 C         -2.8579383953        1.4650203811       -0.2825858801
 B         -0.4827536385        2.1714925211       -0.1726507234
 C          0.7416310681        3.0892596761       -0.0206136955
 C          0.6781824849        4.4855526210        0.0752451344
 C          1.8009493715        5.2709022826        0.1984638395
 C          3.0525248431        4.6668948694        0.2312625729
 C          3.1621420318        3.2975954898        0.1690843062
 C          2.0195819854        2.4911896343        0.0589407506
 N          2.1702377428        1.1174952313        0.0312820767
 C          3.4959521073        0.5903879215       -0.0002127363
 C          4.1433503127        0.2563297686        1.1830985940
 C          5.4248748931       -0.2630486841        1.1427618140
 C          6.0619226100       -0.4491092216       -0.0732583293
 C          5.4167350490       -0.1142151745       -1.2520451008
 C          4.1343741644        0.4049757282       -1.2192486494
 H          2.5841364978       -3.5582938304        0.9693967912
 H          2.6698894906       -3.4982328677       -0.7992488253
 H          2.2620584215       -5.0030553955        0.0163703868
 H         -1.1235659442       -4.1387923804        1.1406197691
 H          0.3118748303       -3.8272853811        2.1159678637
 H          0.1754779624       -5.3241374982        1.1884373585
 H          0.2621887166       -5.2151490105       -1.3835997196
 H         -0.9941228276       -3.9796503096       -1.3965411951
 H          0.5544238525       -3.6628422691       -2.1744847617
 H          2.4232118318       -1.4777061006        0.0995411168
 H         -1.7416762295       -2.3487578825       -0.0502698272
 H         -3.1891562096       -2.3496310131        1.3260188902
 H         -5.4968077476       -3.0951712139        1.5465734956
 H         -7.3705624569       -1.6938881643        0.8137441563
 H         -6.9490937264        0.5668228352       -0.1092433566
 H         -5.8497254174        2.9344608415       -0.9599336919
 H         -4.2957100612        4.7742170881       -1.5097658362
 H         -1.8975562671        4.5276682652       -1.2223249729
 H         -0.2934830270        4.9540739554        0.0717940550
 H          1.7157251451        6.3452003013        0.2703965169
 H          3.9448479136        5.2698363718        0.3193249072
 H          4.1413019376        2.8448634706        0.2184632641
 H          3.6350811928        0.4055059341        2.1243085333
 H          5.9274729662       -0.5228486959        2.0624964688
 H          7.0619549091       -0.8549532804       -0.1017250902
 H          5.9126603844       -0.2581990414       -2.2003435296
 H          3.6199723547        0.6695816443       -2.1311869699
