90
 xtb: 6.7.1 (edcfbbe)
C           -9.45203461330531       -5.98052317465528       -1.03737492814325
C           -8.33514957096281       -5.96586744122347       -1.85664031821097
C           -7.36636990810000       -4.99246249163915       -1.69521039975874
C           -7.49961433283305       -4.01243712648490       -0.71344127215905
C           -6.47124818418073       -2.97353313294480       -0.54375552874131
C           -5.11273961262484       -3.31570788874497       -0.59671137444900
C           -4.11283320250228       -2.37643581456978       -0.44829332344534
C           -4.48376893515421       -1.05239027653670       -0.25783002840889
C           -5.84820610557332       -0.69053995641906       -0.17564028140910
C           -6.83660175828390       -1.65222683275077       -0.31913435625502
C           -5.87974753910621        0.72426843717361        0.07615328796687
C           -6.90976371783132        1.63608145268625        0.24838190037281
C           -6.60405996994486        2.97443613866765        0.46167449446960
C           -7.67859411225646        3.95951567105787        0.66403943769444
C           -8.77389674778702        3.65483695993135        1.47018954669315
C           -9.78283708599181        4.57887200591799        1.66989465089807
C           -9.71759015497316        5.82339884769686        1.06515587083266
C           -8.63575464805359        6.13657624733086        0.25870983453524
C           -7.62418837480337        5.21463020294682        0.06128469651469
C           -5.26300173421582        3.38239795941878        0.48119765843852
C           -4.22211683295342        2.49078354981080        0.32014482148254
C           -4.53275955754611        1.15058769430558        0.13526512624986
N           -3.69969364694360        0.06850835196398       -0.06858117492943
C           -2.29811650230480        0.09662277216860       -0.06454540678686
C           -1.57958886317531       -0.50140317442003       -1.09684447741362
C           -0.19937086363430       -0.49224246280537       -1.07694810836940
C            0.49695587954379        0.13355162415629       -0.04433732342978
C            1.96633248600406        0.14157491189733       -0.02691483212019
C            2.68615944602866       -1.01509736598798       -0.32474200591523
C            4.06474212429437       -1.01376495123689       -0.29136808598581
C            4.76633293243855        0.15152088798483        0.01407622350222
C            6.23364947817573        0.12785524227063        0.03392785310159
C            7.00290339282674        1.23699678247402       -0.31725054230031
C            8.38953590941036        1.09455353546928       -0.26906702782208
C            9.31372462788561        2.17394493622431       -0.64236562767079
C           10.60245375658367        1.84484067747653       -1.06925954114273
C           11.49122362088459        2.83434597903640       -1.44292250561834
C           11.10741766249747        4.16880150181239       -1.39335944545956
C            9.83373515579819        4.50685804666988       -0.95823772183366
C            8.94074204269483        3.51888029760407       -0.58521975697066
N            8.94164931374288       -0.06064386319366        0.10152552211963
C            8.13599183309350       -1.07058032089462        0.41089323085008
C            8.75835602933562       -2.33869562859860        0.80615522518276
C            7.96729406752194       -3.44718483807196        1.10376001885113
C            8.55555899420340       -4.64291905438095        1.46950591558521
C            9.93618940977940       -4.74534070626485        1.54443663794202
C           10.72866658167601       -3.64528792511112        1.25456825396319
C           10.14563850430711       -2.44723185615239        0.88780888837855
N            6.80792080183767       -1.02055165991515        0.38767546921040
C            4.05015679367054        1.31021754794221        0.30752615790945
C            2.66984784331810        1.30060567365273        0.29687418193937
C           -0.23051816507191        0.74488966080990        0.97536705681539
C           -1.61060744835700        0.71763295085091        0.97532790735558
C           -8.62867530320313       -4.03612177972588        0.10293239829636
C           -9.59490069968071       -5.01225266574813       -0.05700076519487
H          -10.20558895738852       -6.74864321958894       -1.13261250529144
H           -8.21536493517357       -6.73361635488978       -2.59287639808246
H           -6.50182192488679       -4.99265631174797       -2.32634993654193
H           -4.84151573508615       -4.35431295890294       -0.71976405082096
H           -3.07356428670470       -2.67146347634000       -0.45854891930582
H           -7.87785352925035       -1.37207922490202       -0.27711119777416
H           -7.93803641236962        1.31380510350992        0.18414599198347
H           -8.82286433570936        2.69755444103629        1.94600263601788
H          -10.62283421017061        4.33538486381806        2.28625265960132
H          -10.50621369308553        6.54933922054668        1.19895934454589
H           -8.58042117097478        7.10479653410845       -0.24245816049102
H           -6.79115104621244        5.46065018117958       -0.60047022843371
H           -5.03866369609065        4.42844724734600        0.63320764146929
H           -3.19789522861025        2.83429456147483        0.32233212138844
H           -2.10726225228152       -0.96369286797044       -1.91622157144021
H            0.35044585067425       -0.95318148872911       -1.88332454287069
H            2.15742332827721       -1.92590668848303       -0.55708739589722
H            4.62423615781330       -1.91003873736898       -0.50699641596068
H            6.54357049072184        2.15642701024088       -0.63323219513059
H           10.85323432025710        0.81455862952318       -1.19596086013927
H           12.44702262328599        2.59109127656940       -1.84793040195161
H           11.79182405290645        4.96421162120537       -1.64095637549294
H            9.56046608438567        5.55027501763189       -0.76786075293651
H            7.98872417206825        3.78930899149316       -0.11029749490963
H            6.89317217087501       -3.35290178760492        1.03777636511199
H            7.93490483614212       -5.50416085141873        1.68446858603995
H           10.39208688199590       -5.69245354311243        1.80090113840839
H           11.80391324075089       -3.73840529521400        1.27660387662325
H           10.74885595230022       -1.59334184790439        0.63036539624548
H            4.57434759907033        2.21755663886719        0.57735403348840
H            2.12753375040907        2.20670385285074        0.52900107355827
H            0.29152489386096        1.21954943902791        1.79438252339430
H           -2.16511466964185        1.16638625011696        1.78665087284974
H           -8.73987371448739       -3.28357910314520        0.88548572886152
H          -10.46347525046032       -5.01238632077460        0.60355047745256
