  56
 
 N         -4.6436440702        7.1251346305        0.6370982703
 C         -4.0865288154        6.1269339389        0.5544351135
 C         -3.3917259895        4.8993301916        0.4537155938
 C         -2.3284257582        4.7738201937       -0.4411289405
 C         -1.6506017178        3.5764910542       -0.5337542983
 C         -2.0238405812        2.4865769290        0.2516946605
 C         -1.2925889988        1.2153234406        0.1360167398
 C          0.0939470597        1.2090457013        0.1489973417
 C          0.8014851499        0.0163352026        0.0243159792
 N          2.2049862955        0.0216263914        0.0315219680
 C          2.9154031219        0.4906156077        1.1437638398
 C          2.2831667471        0.9283450593        2.3003712707
 C          3.0189496525        1.3780798555        3.3861628606
 C          4.3981797464        1.3859693871        3.3390304412
 C          5.0451857078        0.9188839168        2.2053522869
 C          4.3159115877        0.4669147811        1.1206693083
 O          5.0284391513       -0.0152606948        0.0527317431
 C          4.3205371892       -0.4759950986       -1.0270603612
 C          5.0534519398       -0.9446705858       -2.1023015856
 C          4.4112076271       -1.3913052689       -3.2468917129
 C          3.0335606188       -1.3449694595       -3.3152112446
 C          2.2943704117       -0.8785124757       -2.2388890067
 C          2.9205175102       -0.4627577451       -1.0706474488
 C          0.1099818806       -1.1848193203       -0.1124310330
 C         -1.2757418509       -1.2094495181       -0.1285106729
 C         -1.9857640082       -2.4903535590       -0.2629294549
 C         -1.5898265098       -3.4056940150       -1.2375691411
 C         -2.2436362786       -4.6120624218       -1.3750115616
 C         -3.3051036576       -4.9244494900       -0.5248391629
 C         -3.9733252760       -6.1637228352       -0.6573159441
 N         -4.5088128958       -7.1715146107       -0.7632660338
 C         -3.7010505819       -4.0187711321        0.4595812998
 C         -3.0441598126       -2.8124051658        0.5850445816
 C         -1.9824196206       -0.0001202771       -0.0104858136
 C         -3.3886406437        0.0063545032       -0.1484082512
 N         -4.5260650856        0.0169356742       -0.2991572317
 C         -3.0835000592        2.6221289935        1.1469425197
 C         -3.7643822338        3.8172787937        1.2513899119
 H         -2.0451609184        5.6145506563       -1.0568551576
 H         -0.8374285081        3.4730427536       -1.2372118081
 H          0.6321273137        2.1388257196        0.2586020111
 H          1.2063372322        0.9091204811        2.3631087689
 H          2.5000472366        1.7167165820        4.2694511291
 H          4.9750393929        1.7386326225        4.1789774841
 H          6.1210895435        0.8892775287        2.1433603683
 H          6.1286994134       -0.9446883400       -2.0242437918
 H          4.9907965725       -1.7575732006       -4.0790938127
 H          2.5195095545       -1.6652995482       -4.2082443243
 H          1.2194853599       -0.8260700740       -2.3177573710
 H          0.6624577794       -2.1101367792       -0.1810758948
 H         -0.7763012661       -3.1584885782       -1.9039761211
 H         -1.9420079304       -5.3168993573       -2.1355303086
 H         -4.5193253856       -4.2677489354        1.1182512511
 H         -3.3436197609       -2.1209762919        1.3582296398
 H         -3.3665902451        1.7911686059        1.7755112699
 H         -4.5846503355        3.9212545824        1.9454708366
