  67
 
 C         -6.7288913089        2.1539578141        1.1668254490
 C         -6.8121146103        1.2350582483       -0.0560311855
 C         -6.7103399545        2.0522778161       -1.3474320841
 C         -8.0757219802        0.4050250805       -0.0302128799
 C         -9.3879615384        0.8251529178       -0.0597826171
 C        -10.3975218685       -0.1277434668       -0.0256797699
 C        -10.0966996458       -1.4797363867        0.0373191566
 C         -8.7809078603       -1.9113308341        0.0674977390
 C         -7.7710584239       -0.9631800267        0.0333717467
 C         -6.3266534121       -1.1133864863        0.0506691424
 C         -5.5315842736       -2.2487757959        0.1076157165
 C         -4.1585982577       -2.0996930467        0.1090887519
 C         -3.5749441233       -0.8317567103        0.0534999617
 C         -2.1225455512       -0.6978599389        0.0524367397
 N         -1.6063990344        0.5303040386       -0.0350679540
 C         -0.2972227940        0.6474388074       -0.0335083556
 C          0.5656219317       -0.4497398869        0.0445654832
 C          2.0201162110       -0.3178463694        0.0371847459
 C          2.6446846464        0.6345958055       -0.7677079421
 C          4.0189903678        0.7511786831       -0.7869277632
 C          4.8040706394       -0.0742762220        0.0150817416
 N          6.1977269308        0.0432865955        0.0007820918
 C          7.0943664475       -0.9978039815       -0.1483634435
 C          6.8550366690       -2.3474332263       -0.3632248749
 C          7.9472279990       -3.1814382093       -0.5081362205
 C          9.2498592265       -2.6912067875       -0.4516001209
 C          9.4938292286       -1.3453646876       -0.2647924785
 C          8.4121537098       -0.4874163267       -0.1164737566
 C          8.2962571189        0.9323925232        0.0667112099
 C          9.2247190088        1.9573060113        0.1912387429
 C          8.7664828838        3.2448128731        0.3863552598
 C          7.4024989967        3.5135062841        0.4741417479
 C          6.4597267870        2.5104823956        0.3531256828
 C          6.9133406514        1.2183646494        0.1304485407
 C          4.1866809820       -1.0204233235        0.8304058347
 C          2.8130256583       -1.1444274040        0.8329412055
 C         -0.0817274757       -1.6863015583        0.1286892715
 N         -1.3897955661       -1.8103049317        0.1379425165
 C         -4.3794591701        0.3115749768       -0.0029165309
 C         -5.7452001467        0.1641327337       -0.0033912379
 H         -7.5384505029        2.8799795313        1.1498903339
 H         -6.8048851073        1.5698993198        2.0816100384
 H         -5.7811884880        2.6867997951        1.1725735160
 H         -7.5191741736        2.7773389659       -1.4007201851
 H         -6.7736946584        1.3964876036       -2.2132318272
 H         -5.7621087254        2.5830635406       -1.3822539695
 H         -9.6351933588        1.8757682748       -0.1087604378
 H        -11.4303809735        0.1881037910       -0.0485101119
 H        -10.8985450499       -2.2033220067        0.0629334779
 H         -8.5480665938       -2.9646687181        0.1163670569
 H         -5.9769718297       -3.2316516106        0.1495327326
 H         -3.5088987782       -2.9597213066        0.1517631036
 H          0.0855082878        1.6604729252       -0.0783883261
 H          2.0473323962        1.2669832912       -1.4078202393
 H          4.4950692242        1.4694714159       -1.4373577138
 H          5.8497368958       -2.7355274547       -0.4286931568
 H          7.7866259875       -4.2367215125       -0.6728426033
 H         10.0767503101       -3.3761459463       -0.5661504245
 H         10.5026783388       -0.9620110856       -0.2385117868
 H         10.2820846301        1.7455701090        0.1405293250
 H          9.4715356454        4.0569657020        0.4829436871
 H          7.0740044619        4.5282117064        0.6445083903
 H          5.4059326336        2.7274887333        0.4424329049
 H          4.7905082445       -1.6438696977        1.4725372012
 H          2.3447407648       -1.8699095280        1.4816563946
 H          0.4797753794       -2.6122781796        0.1714534640
 H         -3.9057960593        1.2798236944       -0.0441831076
