  94
 
 C          8.1258486144       -1.5082458353       -0.3870894444
 C          8.8961088937       -0.5560049395        0.5463868025
 C          8.1414753959       -0.3892733860        1.8786766974
 C         10.2371124682       -1.2064163615        0.8610240200
 C         10.2924441116       -2.4519306350        1.4729765981
 C         11.4960301302       -3.0635290019        1.7792349938
 C         12.6915055300       -2.4315572062        1.4750418368
 C         12.6684944604       -1.1963307089        0.8645659940
 C         11.4510826237       -0.5852563565        0.5555713514
 N         11.4496195631        0.6404688926       -0.0559397868
 C         10.3136316234        1.3281504966       -0.4065278304
 C         10.4854794389        2.5605651969       -1.0397104623
 C          9.3911501610        3.3043285163       -1.4180265044
 C          8.1276163156        2.8121630505       -1.1555970078
 C          7.9395920280        1.5831949580       -0.5212316692
 C          6.5050175069        1.2478247113       -0.3303682404
 C          5.8270725498        1.6491791271        0.8187173285
 C          4.4740710837        1.4221687038        0.9622101487
 C          3.7377433893        0.8041071559       -0.0545049964
 C          2.3163602492        0.5361581857        0.0616741272
 C          1.6282858451        0.4980542546        1.2781292395
 C          0.2811164151        0.2135821714        1.3118740561
 C         -0.4241825559       -0.0315683389        0.1133466491
 N         -1.7060159158       -0.2981710864        0.0805295040
 C         -2.3956503126       -0.5073802284       -1.0571890960
 C         -3.8136805965       -0.7864662098       -0.9263076982
 C         -4.3252105790       -1.1659858725        0.3219036967
 C         -5.6656926886       -1.4345329277        0.4926304975
 C         -6.5599707608       -1.3017056931       -0.5680242408
 C         -7.9876151655       -1.6843845715       -0.4183857335
 C         -8.2268100711       -3.0185830321       -0.7516167378
 C         -9.4920485192       -3.5671965554       -0.6754847928
 C        -10.5362635373       -2.7731797263       -0.2596598858
 C        -10.3135548062       -1.4359816727        0.0744425720
 C         -9.0345672945       -0.8561805848        0.0016301177
 C         -8.8398515764        0.6157725127        0.3664791468
 C         -7.8735087969        0.7241461425        1.5611537014
 C         -8.2703778008        1.3682680749       -0.8502221185
 C        -10.1365400644        1.3067018775        0.7678147832
 C        -10.1430604129        2.6523323656        1.1114530850
 C        -11.3042837960        3.3054645923        1.4874427992
 C        -12.5050628857        2.6146032614        1.5299683514
 C        -12.5301186284        1.2784254440        1.1937923089
 C        -11.3555436661        0.6251008638        0.8136725393
 N        -11.4016663947       -0.7026386730        0.4800630902
 C         -6.0523697457       -0.9573366619       -1.8194781432
 C         -4.7093478291       -0.6978106989       -1.9976918687
 C         -1.7094021491       -0.4634156966       -2.2743524085
 C         -0.3554317488       -0.2104199663       -2.3062171991
 C          0.3537764270        0.0267552790       -1.1081392626
 N          1.6375761124        0.2862077663       -1.0742750880
 C          4.4132717979        0.4596529947       -1.2328368847
 C          5.7666176694        0.6802259874       -1.3677707081
 C          9.0369310236        0.8058825053       -0.1339957093
 H          7.1155229838       -1.1506092610       -0.5538395491
 H          8.6361524034       -1.5824481288       -1.3461399535
 H          8.0652994078       -2.5028952933        0.0452152013
 H          8.6073601457        0.3935106678        2.4750769367
 H          8.1664524881       -1.3122833060        2.4507941869
 H          7.1036865485       -0.1290369244        1.7029138566
 H          9.3783379261       -2.9688357562        1.7235042463
 H         11.4995656649       -4.0322086356        2.2560881647
 H         13.6345145726       -2.9007462453        1.7129629548
 H         13.5895000730       -0.6869992136        0.6177718188
 H         12.3398369529        1.0645649840       -0.2740906701
 H         11.4879788449        2.9181059687       -1.2280852616
 H          9.5177791947        4.2566608333       -1.9104787134
 H          7.2550835154        3.3813324251       -1.4418525703
 H          6.3707056365        2.1541094793        1.6051126548
 H          3.9810496346        1.7537634759        1.8637580921
 H          2.1630088679        0.6683035014        2.1991762503
 H         -0.2600115592        0.1708391926        2.2442741009
 H         -3.6384352857       -1.2575546884        1.1501908801
 H         -6.0296458018       -1.7579929633        1.4578621622
 H         -7.3925659880       -3.6251978287       -1.0730568589
 H         -9.6588063701       -4.6011673263       -0.9374118564
 H        -11.5384277276       -3.1716985186       -0.1880114307
 H         -6.8669654780        0.4458674936        1.2693018214
 H         -8.2027382703        0.0703816647        2.3672106316
 H         -7.8463440652        1.7420203407        1.9397546183
 H         -7.2856153283        0.9941082172       -1.1078662389
 H         -8.9305715153        1.2440705764       -1.7071716231
 H         -8.1831375960        2.4298802783       -0.6381053140
 H         -9.2232014827        3.2170047023        1.0904633982
 H        -11.2703441894        4.3527329912        1.7478797856
 H        -13.4149894686        3.1162967911        1.8236793427
 H        -13.4562651329        0.7216162731        1.2199270094
 H        -12.2955411966       -1.1714365496        0.5151993239
 H         -6.7267705329       -0.8877335254       -2.6619309533
 H         -4.3581096476       -0.4093213491       -2.9770937147
 H         -2.2396620739       -0.6539290875       -3.1940779401
 H          0.1880716100       -0.1865787672       -3.2380091475
 H          3.8475055129        0.0121287800       -2.0364713412
 H          6.2662197959        0.4114038180       -2.2883526414
