  57
 
 C          5.8437155631        0.9076655587        0.9560465019
 N          4.8405247613        1.5096662622        0.1133177012
 C          5.2306638411        2.5914665330       -0.7549067963
 C          3.5728682477        0.9950382196        0.0649274625
 C          2.6510911966        1.4083287669       -0.9092784692
 C          1.3729820823        0.8942957585       -0.9477032757
 C          0.9651278102       -0.0528386063       -0.0167409008
 N         -0.3447813320       -0.5694372932       -0.0450104322
 C         -0.7251512853       -1.8841342874       -0.0828263984
 C          0.1694398446       -3.0245281447       -0.1887422502
 C          1.3819699098       -2.9696265608       -0.8739534152
 C          2.1849892080       -4.0921036970       -0.9531241302
 C          1.7898222520       -5.2811814206       -0.3634275220
 C          0.5732520608       -5.3496903537        0.2967889253
 C         -0.2329203092       -4.2321417344        0.3826587563
 N         -2.0318217521       -1.9969934532       -0.0441884603
 C         -2.5403790166       -0.7372080983        0.0120648117
 C         -3.9764818875       -0.5209477608        0.0982651448
 C         -4.5198095442        0.6099638131        0.7048654187
 C         -5.8905436954        0.7750681241        0.7681154360
 C         -6.7373987586       -0.1842687512        0.2376205493
 C         -6.2049208730       -1.3210643536       -0.3488103411
 C         -4.8360361387       -1.4906873329       -0.4165150635
 C         -1.4986070289        0.1784357656        0.0075122290
 C         -1.4951388918        1.6348613667        0.0253544407
 C         -2.3127432550        2.3412243964       -0.8565445814
 C         -2.3104074488        3.7224226049       -0.8570411676
 C         -1.4911474404        4.4189567207        0.0171051240
 C         -0.6793675884        3.7251095537        0.8984246926
 C         -0.6792938696        2.3427818711        0.9060645726
 C          1.8631112329       -0.4725521265        0.9577937947
 C          3.1421526230        0.0371701509        0.9968839370
 H          5.6740029394        1.1394054449        2.0135075839
 H          6.8247929161        1.2857457196        0.6779879888
 H          5.8542395643       -0.1787046599        0.8346838106
 H          5.3484381732        2.2630704808       -1.7947015287
 H          6.1793305687        3.0017304882       -0.4156250621
 H          4.4891964346        3.3927055225       -0.7238287108
 H          2.9323646464        2.1294502458       -1.6582547367
 H          0.6844416564        1.2230299430       -1.7122234073
 H          1.6921094336       -2.0569032718       -1.3603785674
 H          3.1238688975       -4.0390271635       -1.4854913026
 H          2.4234783131       -6.1537511800       -0.4266355633
 H          0.2546163656       -6.2787787170        0.7465827821
 H         -1.1851256980       -4.2686917729        0.8884489390
 H         -3.8678722893        1.3540821856        1.1380810161
 H         -6.3014898471        1.6564892347        1.2397603860
 H         -7.8082180732       -0.0492572457        0.2880673118
 H         -6.8619295084       -2.0769590601       -0.7549698947
 H         -4.4056989628       -2.3724943700       -0.8655618938
 H         -2.9474600606        1.7950425193       -1.5391035123
 H         -2.9472333384        4.2590943429       -1.5451368577
 H         -1.4883659876        5.4990626985        0.0130760985
 H         -0.0440351924        4.2631189817        1.5871758164
 H         -0.0536152567        1.8083402407        1.6062349806
 H          1.5511064895       -1.2044546703        1.6886002197
 H          3.8043002980       -0.3043944285        1.7747088095
