68
 xtb: 6.7.1 (edcfbbe)
C           -6.89607452693047        1.26300819456077       -0.02298463383979
C           -6.01564489268285       -0.00000490815680       -0.00009117534889
C           -6.89596326980417       -1.26310043416979        0.02273017246732
C           -5.16652653831780        0.02195642182087        1.25729137730686
C           -5.78352294076380        0.04094605297890        2.50057573367753
C           -5.06057821229345        0.05299027025523        3.67927291642165
C           -3.67854526817986        0.04093512060617        3.62556254583352
C           -3.03901153740116        0.02214726660219        2.40393906018176
C           -3.76860997744035        0.01817300893615        1.21161457508371
N           -3.09760440790673        0.00012463392319        0.00002904725775
C           -1.67574886128870        0.00010343314198        0.00007872203743
C           -0.98086620635246        1.20525629552534        0.09102775101521
C            0.39908862169366        1.20497808945528        0.08975217760912
C            1.09943369108903        0.00004002701840        0.00009268445550
C            2.56334513814744        0.00000455456536        0.00008480161266
N            3.18592861936172        1.17442186245524        0.01437239581772
C            4.51572488475926        1.12835622894122        0.00914491586882
C            5.24836369379596        2.39442396717978        0.01484269687426
C            4.55780804789686        3.60479497921683       -0.00657653815862
C            5.25380600961324        4.79785271800891       -0.00231982223954
C            6.64003158710932        4.79441067999047        0.02345084691206
C            7.33170949704870        3.59301041217867        0.04482305142879
C            6.64187858456968        2.39644915715538        0.04045589214562
N            5.21901302419939       -0.00006237812673        0.00002607247629
C            4.51566814323628       -1.12844568506637       -0.00907687234599
C            5.24824250158175       -2.39455086997858       -0.01478334840067
C            4.55762179653146       -3.60488761118169        0.00648082935462
C            5.25355770121529       -4.79798141244237        0.00219422688167
C            6.63978612881578       -4.79460980818530       -0.02344013017248
C            7.33152883227253       -3.59324401672412       -0.04464979742374
C            6.64175991371301       -2.39664705362714       -0.04025915650578
N            3.18586954497609       -1.17444400442362       -0.01424428644180
C            0.39903328909705       -1.20486611875325       -0.08956297759438
C           -0.98092039200081       -1.20508167372462       -0.09085009478031
C           -3.76850950532400       -0.01798832293284       -1.21161235769656
C           -3.03881368480354       -0.02186191328474       -2.40387781667549
C           -3.67824534968037       -0.04068508864086       -3.62555407504854
C           -5.06027259482479       -0.05288306750177       -3.67937787483955
C           -5.78331479530966       -0.04091479581257       -2.50073985025064
C           -5.16642204066477       -0.02187077501249       -1.25740455030849
H           -7.53248203885814        1.28861435457480       -0.88637786231517
H           -7.53164945258071        1.29750224359620        0.87444021530279
H           -6.26759396217299        2.15170228297293       -0.01092500419239
H           -7.53146070278634       -1.29765163657557       -0.87475036143468
H           -7.53245049808860       -1.28875702647359        0.88606591963103
H           -6.26741117190463       -2.15173588147269        0.01072940087604
H           -6.86164510640113        0.01196624182388        2.55800769932357
H           -5.57315043312760        0.01766338881802        4.62915969292266
H           -3.09461156212733        0.01106145549894        4.53393025817880
H           -1.96015437797263        0.00155611825595        2.36769965605350
H           -1.53357731233645        2.13311883599160        0.04677002485646
H            0.95448401052553        2.12929885613248        0.04555884767543
H            3.47934999926904        3.58827671337714       -0.01245145002587
H            4.71707340328528        5.73530781264656       -0.00933164628288
H            7.18192856684863        5.72895476886053        0.00935305218768
H            8.41193033500079        3.59278829222852        0.02504434119973
H            7.16293866032874        1.45208706376766        0.02210011891743
H            3.47916308971026       -3.58831153601129        0.01221848637352
H            4.71677394241124       -5.73540734291519        0.00908657198491
H            7.18163166212671       -5.72918237213617       -0.00931601148195
H            8.41174713345024       -3.59307942417632       -0.02473145376963
H            7.16286767744549       -1.45231277972253       -0.02178587104611
H            0.95438703561696       -2.12921003968557       -0.04535737068964
H           -1.53367219608587       -2.13291833733004       -0.04659819909241
H           -1.95996037699000       -0.00115437823328       -2.36755088796641
H           -3.09423691175484       -0.01076515418184       -4.53387120158650
H           -5.57276781952067       -0.01759894332511       -4.62930563740161
H           -6.86143326419288       -0.01206931563099       -2.55825953594079
