  72
 
 C         -2.2536302640        0.0323231288       -3.1914916751
 C         -3.1632205355        0.0199812610       -2.2120657875
 C         -2.8209686090        0.0052996372       -0.7399152266
 C         -1.3477626107        0.0027534613       -0.4778414727
 C         -0.4398980627        0.0146390343       -1.4786762165
 C         -0.8559149760        0.0309542372       -2.8885665578
 C          0.2527738076        0.0426291232       -3.6695720774
 C          1.4225775948        0.0340383534       -2.8135824141
 C          0.9818713116        0.0162599512       -1.4749297720
 C          1.8948759864        0.0039323724       -0.2802871493
 C          3.3171887117        0.0088465904       -0.7508481686
 C          4.4959010423       -0.0021586873        0.0510686548
 C          4.6962223616       -0.0237159651        1.4209171643
 C          6.0030685188       -0.0297917277        1.9058875902
 C          7.0884290057       -0.0144437652        1.0433542022
 C          6.9083698206        0.0070650055       -0.3386755970
 C          5.6175235825        0.0127877986       -0.8420025005
 C          5.1149519112        0.0314188079       -2.1727167514
 C          3.7101956231        0.0286548896       -2.1169758204
 C          2.7633968547        0.0414387453       -3.1632508223
 C          1.6620708110       -1.2954833238        0.4765549353
 C          1.9794943715       -2.4718359258       -0.1997331501
 C          1.7986135990       -3.7130323432        0.3772548552
 C          1.2862525723       -3.8051535494        1.6624140749
 C          0.9602880080       -2.6538419954        2.3471978480
 C          1.1467441821       -1.4038012679        1.7599398312
 S          0.6745999671       -0.0237798987        2.7563455124
 C          1.1463346872        1.3742594890        1.7852978122
 C          0.9586886274        2.6134067379        2.3948614933
 C          1.2842548546        3.7770987877        1.7311605064
 C          1.7975289650        3.7084886913        0.4448924559
 C          1.9794777270        2.4780395782       -0.1543074902
 C          1.6622968026        1.2894849115        0.5004242979
 C         -3.4393224604       -1.2584427689       -0.1517473659
 C         -2.6501084868       -2.3810626633        0.0729949971
 C         -3.1963944007       -3.5617718738        0.5420458621
 C         -4.5559816481       -3.6449091920        0.7945244227
 C         -5.3570633308       -2.5411255214        0.5800940919
 C         -4.8013618393       -1.3574825984        0.1091487998
 S         -5.9054671095        0.0011466959       -0.1505448968
 C         -4.8008139372        1.3549527192        0.1310023185
 C         -5.3561578227        2.5314351153        0.6199771578
 C         -4.5547749502        3.6316378492        0.8510641309
 C         -3.1951513507        3.5518792489        0.5977308077
 C         -2.6491433770        2.3782102175        0.1110253724
 C         -3.4387295597        1.2595024362       -0.1308737461
 H         -2.5596252599        0.0433348549       -4.2288381917
 H         -4.2195734816        0.0214962374       -2.4394911176
 H         -1.0572108120       -0.0082266127        0.5623245850
 H          0.2910175987        0.0559802884       -4.7440459357
 H          3.8616223459       -0.0359094891        2.1059865082
 H          6.1709685616       -0.0466417297        2.9728086123
 H          8.0898394976       -0.0193253868        1.4482299185
 H          7.7605090594        0.0187315375       -1.0027962883
 H          5.7085344046        0.0450469197       -3.0686024165
 H          3.0805640382        0.0555980302       -4.1946054202
 H          2.3733883570       -2.3977173358       -1.2029222603
 H          2.0553977733       -4.6050256937       -0.1738262908
 H          1.1390412675       -4.7680055608        2.1277326964
 H          0.5547890086       -2.7009057760        3.3472683202
 H          0.5524017612        2.6421858306        3.3953064422
 H          1.1359617594        4.7313480079        2.2135202286
 H          2.0539618441        4.6104409834       -0.0898936580
 H          2.3738064364        2.4223554569       -1.1585070392
 H         -1.5921097142       -2.3289675716       -0.1391715447
 H         -2.5589986529       -4.4180434776        0.7020876263
 H         -4.9915461382       -4.5635330929        1.1574041826
 H         -6.4193035472       -2.5807651383        0.7699236947
 H         -6.4184277318        2.5686218461        0.8101347489
 H         -4.9901210491        4.5448207497        1.2276593621
 H         -2.5575484158        4.4054870510        0.7706540015
 H         -1.5911054042        2.3288947295       -0.1016129973
