80
 xtb: 6.7.1 (edcfbbe)
C           -5.59466602751057        0.04456560757088        3.13407568261495
C           -5.93489242213679        0.01127855347228        1.63194419863150
C           -7.46230285843270       -0.01637590332353        1.43306456169215
C           -5.34329611761373       -1.24866527067576        1.02614886769139
C           -5.74498593687055       -2.49061980454345        1.49993054851459
C           -5.24625833035963       -3.67238895505167        0.98216735658606
C           -4.31810050647174       -3.62362019853880       -0.04240627752614
C           -3.89944207563663       -2.40317348701432       -0.53092426767728
C           -4.40040559470240       -1.20816068105280       -0.00636215548786
N           -3.95764708598770        0.00314185195543       -0.51812631916116
C           -3.00285761267345       -0.00193472925258       -1.57189966354565
C           -3.43685432414956        0.00358993825998       -2.89285033303326
C           -2.52125752870327       -0.00135396404631       -3.93869356195678
C           -1.17483605873711       -0.00970642128264       -3.63314650983258
C           -0.73195248382093       -0.01321552440895       -2.29633035533720
C           -1.63919848432334       -0.01102067471073       -1.25954995913122
C            0.73268879401973       -0.01707357485017       -2.29646746038588
C            1.64016558625184       -0.01627172685128       -1.25988745406443
C            3.00376240074033       -0.01630304398174       -1.57246479234202
N            3.95876965248980       -0.01215947099067       -0.51890042008862
C            4.41693700387126        1.20375645127837       -0.03220156687412
C            3.92616594129382        2.39398781106015       -0.57670694504006
C            4.36235996264086        3.61861152621663       -0.11530765178164
C            5.29743412421631        3.67653622080942        0.90243126487206
C            5.78247396307104        2.49956143432445        1.44329113722743
C            5.36249919988910        1.25353247054352        0.99744149769205
C            5.93445524030781       -0.00074947087812        1.63259430382043
C            7.46191154254820       -0.00222928928471        1.43397164498883
C            5.59379751093905        0.00733306052851        3.13479969367282
C            5.36195509552961       -1.26132452893833        1.01048680509297
C            5.78140921427586       -2.50287450065221        1.46913249872493
C            5.29686901135070       -3.68511739003447        0.93942101242044
C            4.36342871254487       -3.63729413714925       -0.08036191316591
C            3.92764804292239       -2.41731031808834       -0.55427786658514
C            4.41713619997217       -1.22181744727823       -0.02028608056565
C            3.43747224594264       -0.01914384792761       -2.89344918835307
C            2.52163478250675       -0.02054995078699       -3.93911198019938
C            1.17527893353093       -0.01859607462584       -3.63334457714022
C            0.00012295801930       -0.01507157609515       -4.54071076834878
O           -0.00003270244525       -0.01185102817295       -5.75511740736212
C           -4.43271087808671        1.21726221531781       -0.04577194498616
C           -3.95311940772768        2.40788754963441       -0.59944041651914
C           -4.40773261974201        3.63185949815023       -0.15383758022129
C           -5.34951679668622        3.68875712626519        0.85779977423433
C           -5.82052264509026        2.51143666230289        1.41048179364388
C           -5.38164268861988        1.26599972188417        0.98082605931831
H           -5.99782493489465       -0.84859183083265        3.63266091932881
H           -6.00480521457292        0.91216046293026        3.61456666207066
H           -4.51392941435058        0.03412176816439        3.27079297051343
H           -7.90794037249822       -0.87429659630728        1.89299668181626
H           -7.91536807096532        0.88591946671868        1.87528048449449
H           -7.69784163826313       -0.00852027202025        0.37031200126805
H           -6.49937674196532       -2.54291503293970        2.27636778465459
H           -5.63000795423434       -4.62112169937633        1.34046070661014
H           -3.95761058977414       -4.53834843532186       -0.49112683194796
H           -3.19290773247617       -2.37815860915544       -1.34198644070418
H           -4.49737978007089       -0.01236654157823       -3.09629378047285
H           -2.84928344969567       -0.02521819621017       -4.96737013651297
H           -1.32584936401503       -0.00514904713980       -0.22726457107359
H            1.32646304534458       -0.00503898144442       -0.22736637614681
H            3.19509045116779        2.35981570220105       -1.37372032519121
H            3.96773869926216        4.53052381214017       -0.55782387688063
H            5.64551496029578        4.63651461227451        1.26768052915036
H            6.50991624064794        2.57050270467933        2.23446008587967
H            7.91103995861843        0.89028339279912        1.87926986029138
H            7.69786374854144       -0.00022223185811        0.37137123315216
H            7.91138696797205       -0.86997714525108        1.89131068908468
H            4.51306966694026        0.01826585863214        3.27105069008722
H            6.00015598657515        0.90123339190005        3.61861113715602
H            6.00053193676930       -0.85955548177532        3.62998108740814
H            6.51010509794575       -2.54640752069155        2.26744148832992
H            5.64811723736314       -4.62481864496779        1.32526539767040
H            3.97319114693399       -4.54249412002564       -0.50402741034646
H            3.19976193945424       -2.38249563044363       -1.34740158713424
H            4.49779328768283       -0.02127777390802       -3.09655091926960
H            2.84955910094006       -0.03196713886636       -4.96752440389253
H           -3.20038453465493        2.36411805660912       -1.37828106255525
H           -3.98278147710050        4.53452711663533       -0.57081827085064
H           -5.66460928150439        4.64002338069245        1.25099252452006
H           -6.52213038481675        2.57387584516499        2.22359400360520
