  41
 
 C         -6.0281362895        0.6663097318       -0.0306807720
 O         -4.6128474573        0.7121178630       -0.0262103049
 C         -3.9243816837       -0.4340698676       -0.0900886325
 C         -4.4654385011       -1.6826145058       -0.1667364031
 C         -3.6497024304       -2.8591336709       -0.2344343079
 O         -4.0756901302       -3.9989898738       -0.3098321631
 O         -2.2933664859       -2.7000634224       -0.2120663399
 C         -1.7150395940       -1.4710146152       -0.1291156928
 C         -0.3278686434       -1.4354257072       -0.1043235936
 C          0.2859128070       -0.1965171040       -0.0110722864
 C         -0.4785048883        1.0056578413        0.0264875014
 C         -1.8547878810        0.9535001300       -0.0009267535
 C         -2.4868115969       -0.2906657655       -0.0701196853
 C          0.4704694563        2.0842918109        0.0870490729
 C          0.3432738532        3.4656073033        0.1581389999
 C          1.4916427503        4.2302515487        0.2274905737
 C          2.7506658429        3.6338236849        0.2398981916
 C          2.9010180345        2.2608863051        0.1702218361
 C          1.7519339763        1.4895504893        0.0795080418
 N          1.6186445867        0.1118687731        0.0185814870
 C          2.6819033244       -0.8121603894        0.0017749208
 C          3.7043951898       -0.6778986341       -0.9317755068
 C          4.7534567033       -1.5797841946       -0.9379652289
 C          4.7840720615       -2.6214746217       -0.0252066012
 C          3.7620912179       -2.7586322147        0.8999508741
 C          2.7140042660       -1.8558814724        0.9207048619
 H         -6.4046203356        0.2178144013       -0.9532750606
 H         -6.4059399951        0.1074062716        0.8289410319
 H         -6.3510941050        1.7035367464        0.0334297147
 H         -5.5264265337       -1.8643775769       -0.1846484397
 H          0.2265177488       -2.3575124137       -0.1645031167
 H         -2.4554890092        1.8475023826        0.0294676108
 H         -0.6328134242        3.9256570149        0.1620070297
 H          1.4169608863        5.3061241995        0.2807416632
 H          3.6298002074        4.2573565776        0.3082029298
 H          3.8796104051        1.8071099108        0.1954525503
 H          3.6661917877        0.1243283982       -1.6534528466
 H          5.5460387241       -1.4720918460       -1.6634291877
 H          5.6022500662       -3.3257673290       -0.0350014901
 H          3.7830154500       -3.5679083049        1.6147305159
 H          1.9250926388       -1.9487148543        1.6520840057
