  54
 
 N          7.2643633848       -3.5462811257       -2.1542027332
 C          6.6201020068       -2.6597456723       -1.8100098056
 C          5.8308305392       -1.5706611383       -1.3851255775
 C          6.4207258404       -0.5024392160       -0.7047121844
 C          5.6418089318        0.5594540510       -0.2945744482
 C          4.2712847979        0.5842991148       -0.5445382077
 C          3.4364179778        1.7403060502       -0.0797179496
 C          3.3439874540        1.8194400428        1.4498828367
 C          2.6498207526        0.5992476547        2.0664817772
 C          1.2419741756        0.4183214457        1.5708582814
 C          0.2764329501        1.3960012717        1.7894087099
 C         -1.0134979640        1.2441592212        1.3228172245
 C         -1.3775997410        0.0993636571        0.6143047785
 N         -2.6837672051       -0.0552816837        0.1289162417
 C         -3.3644783321        1.0460199409       -0.4010510460
 C         -2.6802466724        2.0130785922       -1.1385283762
 C         -3.3537931620        3.1030386276       -1.6549896074
 C         -4.7175838792        3.2450885418       -1.4556750762
 C         -5.4035736433        2.2859586353       -0.7278000100
 C         -4.7367973054        1.1977283701       -0.1988216388
 C         -3.2996591672       -1.3108777036        0.1792317571
 C         -3.0803254268       -2.1630402187        1.2621756243
 C         -3.6832038752       -3.4053416910        1.3051959407
 C         -4.5193949536       -3.8165077141        0.2796306616
 C         -4.7435778999       -2.9732791210       -0.7968849116
 C         -4.1378530991       -1.7328483773       -0.8534090780
 C         -0.4190210251       -0.8898696213        0.4031772325
 C          0.8669457735       -0.7285733192        0.8820485841
 C          3.6967238656       -0.4820679039       -1.2293937827
 C          4.4598795549       -1.5537889311       -1.6480247023
 H          7.4832547622       -0.5167536325       -0.5092243750
 H          6.1048736514        1.3865417895        0.2232772926
 H          2.4298282317        1.6565739694       -0.4926408817
 H          3.8804245605        2.6698083769       -0.4459244612
 H          4.3464719042        1.9023388612        1.8737969904
 H          2.7932849590        2.7234663806        1.7145615270
 H          2.6347094838        0.7265153783        3.1529898206
 H          3.2309882204       -0.2977497185        1.8428740868
 H          0.5321496431        2.2867466141        2.3449035652
 H         -1.7521945923        2.0107817798        1.5075268805
 H         -1.6188142726        1.9009349754       -1.3053719818
 H         -2.8106564172        3.8426704860       -2.2254701818
 H         -5.2417280997        4.0959555681       -1.8644521420
 H         -6.4661589934        2.3902354958       -0.5616862922
 H         -5.2737940522        0.4578587894        0.3770126716
 H         -2.4362143544       -1.8426425538        2.0683425341
 H         -3.5056172319       -4.0534897239        2.1512895766
 H         -4.9920358130       -4.7865227619        0.3186128826
 H         -5.3889765523       -3.2870116044       -1.6046590249
 H         -4.3076368350       -1.0826096359       -1.6994520550
 H         -0.6884120256       -1.7850502399       -0.1389352297
 H          1.5946307811       -1.5095549875        0.7116967497
 H          2.6369510612       -0.4705320949       -1.4370642332
 H          4.0077433276       -2.3794132914       -2.1786722339
