  75
 
 C         -5.1396803921        5.1480945617        0.9758380993
 C         -4.3098925468        4.9952010549       -0.3102988517
 C         -5.2455550918        4.9765763227       -1.5309580595
 C         -3.3822469586        6.2068497910       -0.4331000726
 C         -3.5541443595        3.6857334942       -0.2479207379
 C         -2.1571894463        3.6089629792       -0.2954469728
 C         -1.5138825437        2.3993351293       -0.2234357421
 C         -2.2361460971        1.1995907071       -0.0932000395
 C         -3.6465742010        1.2487795566       -0.0757189525
 C         -4.2587025452        2.4866080528       -0.1474827833
 C         -4.4846011378       -0.0040773374       -0.0000200950
 C         -5.3632842444       -0.0826620986       -1.2672988228
 C         -5.3768914528        0.0681166073        1.2580527138
 C         -3.6393904732       -1.2511459597        0.0840332735
 C         -4.2506802909       -2.4930011143        0.1527641401
 C         -3.5409847814       -3.6842229763        0.2597552607
 C         -4.2121244526       -5.0381599064        0.3263758242
 C         -3.6929504796       -5.9037661835       -0.8339652179
 C         -5.7375329549       -4.9563233059        0.2215159292
 C         -3.8520550850       -5.7006343214        1.6669789818
 C         -2.1414623754       -3.5980084873        0.3202039690
 C         -1.5014371947       -2.3898470805        0.2495089717
 C         -2.2306524180       -1.1936015721        0.1098410106
 N         -1.5722025251        0.0044108899        0.0083108375
 C         -0.1543094868        0.0067627529        0.0055001541
 C          0.5839067468       -0.3547072857       -1.1415161054
 F         -0.1049917236       -0.6661353862       -2.2614924720
 C          1.9518722759       -0.3519733587       -1.1467969539
 F          2.5857943767       -0.6100444158       -2.3118905805
 C          2.7228683649        0.0090881777       -0.0021103273
 C          4.1527040519        0.0099198712       -0.0063840326
 C          4.9193168277        1.0342152814        0.6130013096
 F          4.2800191619        2.0987557213        1.1453337880
 C          6.2935084977        1.0379158505        0.6118873039
 F          6.9672997187        2.0527705910        1.1904601648
 C          7.0068379955        0.0121229798       -0.0172728377
 F          8.3584293165        0.0133006933       -0.0225827044
 C          6.2903997011       -1.0149131147       -0.6407626923
 F          6.9613214650       -2.0288586116       -1.2243142956
 C          4.9162472035       -1.0134217212       -0.6312024432
 F          4.2745533730       -2.0792744803       -1.1581790810
 C          1.9573394633        0.3692475706        1.1465244490
 F          2.5970381761        0.6290925857        2.3080799276
 C          0.5892707858        0.3695814803        1.1485593881
 F         -0.0942824923        0.6803348139        2.2720031806
 H         -4.4902409534        5.1284061955        1.8484086093
 H         -5.8749794914        4.3555872377        1.0764721247
 H         -5.6656235432        6.0995377319        0.9599476796
 H         -5.7589792438        5.9315810198       -1.6113237555
 H         -4.6738806248        4.8157240623       -2.4424039626
 H         -5.9953141557        4.1954234938       -1.4518316625
 H         -3.9788401639        7.1156489696       -0.4695188901
 H         -2.7150713942        6.2813502603        0.4225532008
 H         -2.7915270794        6.1599423809       -1.3450902670
 H         -1.5587782445        4.4984497178       -0.3913272349
 H         -0.4367391746        2.3682219788       -0.2704509900
 H         -5.3345559267        2.5252343189       -0.1270400339
 H         -5.9874900295        0.8003645768       -1.3543520614
 H         -4.7343125763       -0.1506321537       -2.1522890422
 H         -6.0076149416       -0.9547802612       -1.2323971843
 H         -5.9945418277       -0.8200221434        1.3400407986
 H         -4.7577120994        0.1437902581        2.1493077869
 H         -6.0284788987        0.9343551922        1.2150636589
 H         -5.3249075135       -2.5305997150        0.1234246692
 H         -3.9094895575       -5.4274999517       -1.7878888600
 H         -4.1821836741       -6.8746012836       -0.8139185533
 H         -2.6208161479       -6.0643585179       -0.7680083591
 H         -6.1530375463       -5.9604938850        0.2646771712
 H         -6.1596829800       -4.3882576278        1.0468848282
 H         -6.0427886308       -4.5111182041       -0.7223542037
 H         -2.7800980482       -5.8434214964        1.7682577586
 H         -4.3319059750       -6.6739704797        1.7348949703
 H         -4.1961494415       -5.0869711822        2.4967734791
 H         -1.5441585294       -4.4888666575        0.4251754625
 H         -0.4249352398       -2.3524099376        0.3048622669
