  66
 
 O          0.4404670092        5.1871268522        0.6992470841
 S          0.4027657280        4.3488945643       -0.4673039641
 O          0.4790552602        4.9593883491       -1.7657821875
 C          1.6570907423        3.0663710753       -0.3418930921
 C          2.1939060262        2.5264888545       -1.4941979466
 C          2.9744951714        1.3864496416       -1.4101624815
 C          3.1988827646        0.7966921781       -0.1717085196
 N          3.9278934970       -0.4235739549       -0.1084264624
 C          5.3135959550       -0.3424707012        0.0244926530
 C          5.9188613799        0.9013927582        0.2071559892
 C          7.2910965168        1.0232051066        0.3367001029
 C          8.0980874847       -0.0981380618        0.3025761550
 C          7.5149885253       -1.3409026332        0.1291072975
 C          6.1433779177       -1.4647207303       -0.0181162280
 S          5.5203382833       -3.0975940297       -0.3028486062
 C          3.7872647878       -2.8656591817       -0.0241598575
 C          3.0275660209       -4.0157722018        0.1134667322
 C          1.6538628297       -3.9441024987        0.2623914375
 C          1.0445280467       -2.7040742821        0.2681302494
 C          1.8020001564       -1.5522426901        0.1435682874
 C          3.1907818036       -1.6021283797        0.0077042923
 C          2.6891679423        1.3750535988        0.9887676085
 C          1.9072028143        2.5113714780        0.8995937900
 C         -1.0227847600        3.2633300968       -0.3773126073
 C         -1.3172588464        2.4750735772       -1.4749014485
 C         -2.2818196105        1.4932369912       -1.3691467367
 C         -2.9405128332        1.2912617297       -0.1542374641
 N         -3.8643610858        0.2541535871       -0.0312419483
 C         -5.1332799794        0.3438247029        0.5150288659
 C         -5.8156897514        1.4553961546        0.9859855615
 C         -7.1043512875        1.2708941534        1.4509513747
 C         -7.7086165620        0.0161364399        1.4414461872
 C         -7.0427197359       -1.0888399201        0.9495862256
 C         -5.7469037080       -0.9280931193        0.4774847013
 C         -4.7919988675       -1.8282117321       -0.1089589742
 C         -4.8061359839       -3.1903095596       -0.3782222631
 C         -3.6810228387       -3.7666821194       -0.9337799688
 C         -2.5469195070       -3.0058292565       -1.2061455169
 C         -2.5101330492       -1.6480383981       -0.9474539094
 C         -3.6468797532       -1.0591009454       -0.4136441561
 C         -2.6533611092        2.1136313618        0.9362197972
 C         -1.6887266092        3.0967509709        0.8218583517
 H          1.9886301762        3.0046600086       -2.4389825838
 H          3.3962518846        0.9365889279       -2.2961245773
 H          5.3058533700        1.7886316630        0.2424796991
 H          7.7223852124        2.0036438947        0.4682371795
 H          9.1680719603       -0.0127323450        0.4062885595
 H          8.1192339207       -2.2344643214        0.0920062785
 H          3.5314271742       -4.9699319029        0.0879909481
 H          1.0717931539       -4.8461881889        0.3644118770
 H         -0.0266433202       -2.6220038017        0.3730662589
 H          1.3004865798       -0.5966129063        0.1462482533
 H          2.8915253601        0.9147502054        1.9443936288
 H          1.4846351691        2.9764744531        1.7761208118
 H         -0.7947768750        2.6498838775       -2.4020147121
 H         -2.5373564307        0.8806486556       -2.2200322485
 H         -5.3651863156        2.4363120910        0.9784469195
 H         -7.6559318270        2.1201622577        1.8256575185
 H         -8.7161062508       -0.0869909668        1.8154230381
 H         -7.5168944167       -2.0581388285        0.9251443086
 H         -5.6789332407       -3.7829444176       -0.1504879770
 H         -3.6720297729       -4.8237229161       -1.1530647865
 H         -1.6748358824       -3.4855523522       -1.6256332125
 H         -1.6180590991       -1.0727205202       -1.1464632318
 H         -3.1635591800        1.9532548389        1.8735902787
 H         -1.4337871353        3.7373537674        1.6514773664
