  66
 
 C          0.6176966006        0.0028344154       -0.0083208777
 C         -0.6179881865        0.0030745343       -0.0081265340
 C         -1.9836249687        0.0027980210       -0.0068470802
 C         -2.7215723379       -0.6222644030        1.0449343196
 C         -4.0843658905       -0.6286532958        1.0354635580
 C         -4.7973343723        0.0017419882       -0.0030565489
 N         -6.2050185713        0.0012527285       -0.0011701635
 C         -6.9141792076       -1.1948878530       -0.0304099351
 C         -6.2792317081       -2.4316321131       -0.1270562268
 C         -7.0135659210       -3.6040341523       -0.1491489083
 C         -8.3949346522       -3.5683909924       -0.0895499052
 C         -9.0460913566       -2.3463560414       -0.0335363989
 C         -8.3181306127       -1.1695934174       -0.0125035188
 O         -9.0281967236        0.0005005695        0.0017282775
 C         -8.3187422724        1.1709678683        0.0154058575
 C         -9.0472540865        2.3473427497        0.0388771680
 C         -8.3965934148        3.5696581915        0.0945628246
 C         -7.0151197211        3.6059612573        0.1513379441
 C         -6.2802409839        2.4339548719        0.1267161955
 C         -6.9147769683        1.1969742006        0.0304081627
 C         -4.0875940202        0.6327381117       -1.0434257926
 C         -2.7248011539        0.6273646382       -1.0566063365
 C          1.9832871887        0.0019101073       -0.0072059943
 C          2.7247218216        0.6193501309       -1.0610607150
 C          4.0874828563        0.6234461246       -1.0484997257
 C          4.7972109380       -0.0004134704       -0.0036902647
 N          6.2047575221       -0.0014525266       -0.0018708996
 C          6.9151450227        1.1942677247        0.0162379960
 C          6.2813857669        2.4326802077        0.0988530330
 C          7.0168684917        3.6045077507        0.1093126555
 C          8.3982872753        3.5668820878        0.0520023848
 C          9.0482529881        2.3436489130        0.0104754922
 C          8.3191036299        1.1674564125        0.0011512619
 O          9.0280519192       -0.0033514928        0.0013059897
 C          8.3175167019       -1.1732001344        0.0006742571
 C          9.0451234413       -2.3503642269       -0.0061421596
 C          8.3936386117       -3.5727690862       -0.0482234181
 C          7.0123068585       -3.6086007826       -0.1086486629
 C          6.2783563925       -2.4357899985       -0.1007712372
 C          6.9135553365       -1.1981512352       -0.0175960265
 C          4.0838901408       -0.6230972390        1.0393700104
 C          2.7211383286       -0.6167696444        1.0484830664
 H         -2.1742973599       -1.0816577837        1.8545773032
 H         -4.6374007016       -1.0908316540        1.8414884254
 H         -5.2040181613       -2.4692941147       -0.1958991355
 H         -6.4966717861       -4.5485625684       -0.2197459633
 H         -8.9687252495       -4.4814350351       -0.1023420200
 H        -10.1221693373       -2.2815573908       -0.0129022136
 H        -10.1233395012        2.2820229673        0.0203827651
 H         -8.9708179603        4.4823995498        0.1093274735
 H         -6.4985669051        4.5506925649        0.2217106635
 H         -5.2048988366        2.4720663172        0.1933184604
 H         -4.6431600885        1.0946263506       -1.8478784441
 H         -2.1800985617        1.0872581432       -1.8677005396
 H          2.1801596780        1.0739920268       -1.8752091646
 H          4.6430614523        1.0787078003       -1.8567196067
 H          5.2061408775        2.4722784175        0.1659490499
 H          6.5008061031        4.5502466665        0.1689357243
 H          8.9729759051        4.4794417037        0.0555654895
 H         10.1242929569        2.2775034108       -0.0076629205
 H         10.1212059932       -2.2856257019        0.0143750765
 H          8.9671220368       -4.4860920243       -0.0497594171
 H          6.4951231154       -4.5537010100       -0.1686823116
 H          5.2032212354       -2.4740431069       -0.1703189934
 H          4.6366835697       -1.0791453211        1.8490516274
 H          2.1737478162       -1.0704444247        1.8612719954
