  71
 
 C          0.7788726972        2.8061786989        2.4845091909
 C          0.3481961873        4.0498028616        2.0450727106
 N         -0.5998111043        4.2050361074        1.1374845426
 C         -1.1577608065        3.1258603672        0.6245233362
 C         -0.8043489136        1.8241502353        0.9803627880
 C         -1.4735482938        0.6659535245        0.3690184993
 C         -2.8615032902        0.6337003842        0.3357724043
 C         -3.5394530003       -0.4557515288       -0.1992183560
 N         -4.9378398132       -0.4658774289       -0.2326391895
 C         -5.7413287860        0.5558093208       -0.7022074109
 C         -5.3864169367        1.7675680990       -1.2769557020
 C         -6.4021089595        2.6076034107       -1.6915735536
 C         -7.7419692046        2.2537352337       -1.5503642597
 C         -8.1009628100        1.0380966201       -1.0035720740
 C         -7.0975515558        0.1772377664       -0.5789732716
 C         -7.1041050118       -1.1372396003       -0.0001683949
 C         -8.1169812558       -2.0115388486        0.3708601435
 C         -7.7714800791       -3.2223894328        0.9367469623
 C         -6.4364237151       -3.5581538028        1.1492119329
 C         -5.4112052573       -2.7047492375        0.7885653330
 C         -5.7512240474       -1.4977786127        0.1948762359
 C         -2.8129235579       -1.5339242874       -0.6985020284
 C         -1.4338613786       -1.5080801979       -0.6601500239
 C         -0.7434531944       -0.4159138998       -0.1426085757
 C          0.7280158211       -0.4095104738       -0.1766568451
 C          1.4467096451       -1.4979849636        0.3111254320
 C          2.8266350925       -1.5056063948        0.2799028669
 C          3.5190969189       -0.4184284099       -0.2459737079
 N          4.9191954002       -0.4215371633       -0.2731362503
 C          5.7463072467       -0.6969648771        0.7978342797
 C          5.4208585387       -0.9657201677        2.1195375828
 C          6.4567823269       -1.1814904634        3.0080472754
 C          7.7879203360       -1.1245399485        2.6011658862
 C          8.1184057308       -0.8339883155        1.2926874480
 C          7.0946024416       -0.6131232791        0.3809522022
 C          7.0697745248       -0.2765350358       -1.0149908832
 C          8.0605947854       -0.0795816068       -1.9677859078
 C          7.6837581737        0.2165317029       -3.2623416886
 C          6.3387479842        0.3029815624       -3.6149122293
 C          5.3349230319        0.1114058441       -2.6849983942
 C          5.7079312581       -0.1636141611       -1.3772905034
 C          2.8071180611        0.6684364612       -0.7470644493
 C          1.4277333334        0.6685006704       -0.7143215738
 C          0.1904776034        1.6768349350        1.9450448280
 H          1.5513554170        2.7243187534        3.2333694295
 H          0.7753063195        4.9635503568        2.4363741204
 H         -1.9191259450        3.3050130865       -0.1245214977
 H         -3.4227546904        1.4513212504        0.7635445224
 H         -4.3511677686        2.0430394708       -1.4104894266
 H         -6.1510323106        3.5582808767       -2.1383127976
 H         -8.5066027252        2.9392967271       -1.8839600359
 H         -9.1387012794        0.7557286143       -0.9098266402
 H         -9.1519646297       -1.7431655031        0.2219488090
 H         -8.5435305432       -3.9181570226        1.2297421603
 H         -6.1968348531       -4.5053376818        1.6097304694
 H         -4.3808821239       -2.9671450040        0.9761195177
 H         -3.3322580062       -2.3746580623       -1.1324136254
 H         -0.8727642280       -2.3365236178       -1.0674569288
 H          0.9155546067       -2.3407559097        0.7297472239
 H          3.3762340339       -2.3581250901        0.6502542902
 H          4.3927147655       -0.9951698931        2.4481997978
 H          6.2293992753       -1.3957999875        4.0420220452
 H          8.5688310534       -1.3020129123        3.3255498730
 H          9.1501432566       -0.7741074090        0.9806449048
 H          9.1025259383       -0.1624015904       -1.6976056028
 H          8.4383827454        0.3751910232       -4.0182522131
 H          6.0742637730        0.5209694513       -4.6391709292
 H          4.2954125945        0.1630991679       -2.9721287735
 H          3.3417206922        1.5161596741       -1.1483957166
 H          0.8839172806        1.5117412630       -1.1141140887
 H          0.4854591844        0.6902493004        2.2725055049
