  62
 
 C         -4.1523614767       -1.2601432896       -2.1548421743
 C         -4.2135442684       -0.0009103359       -1.2831809884
 C         -4.1522682942        1.2572060879       -2.1564515977
 C         -5.4474940086       -0.0002703028       -0.4074440963
 C         -6.7743169573       -0.0004424939       -0.7817363130
 C         -7.7502291520        0.0003488827        0.2066703981
 C         -7.4012747706        0.0012658506        1.5485764430
 C         -6.0701301253        0.0014406028        1.9340393013
 C         -5.0945730216        0.0006710730        0.9503743499
 C         -3.6433616606        0.0006886133        1.0487862337
 C         -2.8062553578        0.0014780173        2.1527130981
 C         -1.4364761000        0.0013345596        1.9498368353
 C         -0.9011444383        0.0004198501        0.6646352409
 C          0.5688366798        0.0002845783        0.4759284608
 C          1.2594022460       -1.2153811637        0.3899429937
 C          0.5849843408       -2.4626706793        0.4674072490
 C          1.2662024571       -3.6379909830        0.3851743303
 C          2.6668323533       -3.6389959516        0.2200533218
 C          3.3509722942       -2.4651573160        0.1398908944
 C          2.6790268019       -1.2164265453        0.2193924424
 C          3.3682677520        0.0000164589        0.1370870324
 C          4.8391049986       -0.0001040083       -0.0405526570
 C          5.3919008061       -0.0009364894       -1.3194812520
 C          6.7610862711       -0.0010106280       -1.4934514440
 C          7.5997619593       -0.0002347063       -0.3765421016
 C          9.0011169639       -0.0002589332       -0.5458086257
 N         10.1413136466       -0.0002975835       -0.6818225409
 C          7.0530896105        0.0005894926        0.9088137789
 C          5.6822025022        0.0006503886        1.0685703731
 C          2.6791572135        1.2165906016        0.2185419305
 C          3.3512283343        2.4651939679        0.1380909927
 C          2.6672107183        3.6391616503        0.2174017973
 C          1.2665810492        3.6384230686        0.3825247741
 C          0.5852422172        2.4632323158        0.4656183882
 C          1.2595339650        1.2158171245        0.3891023201
 C         -1.7468243558       -0.0003761136       -0.4443221857
 C         -3.1099348063       -0.0002341355       -0.2487428659
 H         -4.1995232482       -2.1522585303       -1.5330430036
 H         -3.2251814421       -1.2808565355       -2.7228461943
 H         -4.9880279618       -1.2777819384       -2.8504503629
 H         -4.1992975239        2.1501066797       -1.5357735082
 H         -3.2251120455        1.2770961449       -2.7245228436
 H         -4.9879668144        1.2740562236       -2.8520401787
 H         -7.0588444121       -0.0011561108       -1.8241563913
 H         -8.7941065385        0.0002376806       -0.0731509407
 H         -8.1767652036        0.0018615056        2.3014608177
 H         -5.8013515359        0.0021597318        2.9804075880
 H         -3.2095688370        0.0021972073        3.1547146794
 H         -0.7642539568        0.0019498325        2.7964659902
 H         -0.4878561527       -2.4577418981        0.5938437285
 H          0.7406204189       -4.5799690577        0.4451549923
 H          3.1911805407       -4.5816457939        0.1583019734
 H          4.4240567467       -2.4667419609        0.0135448715
 H          4.7377548103       -0.0015209002       -2.1789450571
 H          7.1908596282       -0.0016466080       -2.4845904445
 H          7.7082536916        0.0011836048        1.7677838883
 H          5.2536522938        0.0012887433        2.0600086179
 H          4.4243052317        2.4665800571        0.0116789784
 H          3.1916545469        4.5817115280        0.1549401829
 H          0.7411012565        4.5804982730        0.4418620634
 H         -0.4875977249        2.4585048600        0.5920632246
 H         -1.3208501553       -0.0010852640       -1.4375078091
