  112
 
 N         -1.5024798457       -3.6541525512        0.8651523136
 C         -1.0606241158       -2.5846604198        0.8556803950
 C         -0.5361422569       -1.3015945407        0.8387635240
 C          0.8796580817       -1.0832743604        0.8383188411
 N          1.7377573942       -2.1945913152        0.8587629373
 C          2.7735365044       -2.4000319652       -0.0281718311
 C          2.9971602583       -1.8062227950       -1.2618518459
 C          4.1388259955       -2.1685494393       -1.9523423377
 C          5.0212619883       -3.1147722315       -1.4410495689
 C          4.7652670262       -3.7584136797       -0.2420118419
 C          3.6281058425       -3.4102327996        0.4681373622
 C          3.0488591301       -3.8538026492        1.7083206575
 C          3.4239001190       -4.7962617065        2.6518682545
 C          2.6334909841       -4.9575934055        3.7759465311
 C          1.4900019114       -4.1870316976        3.9669349364
 C          1.0993813161       -3.2360653625        3.0435582804
 C          1.8808959819       -3.0812713149        1.9074234116
 C          1.3964723525        0.1927539652        0.8041748445
 N          2.7892608851        0.3875009366        0.8005773974
 C          3.6547685138       -0.1833619365        1.7090399399
 C          3.3795646618       -0.7405577704        2.9494542160
 C          4.4375394705       -1.2669578825        3.6646551507
 C          5.7394864528       -1.2226598773        3.1707944274
 C          6.0271038606       -0.6211483064        1.9595829390
 C          4.9792041769       -0.0878815798        1.2242394357
 C          4.8926115929        0.5963139317       -0.0319125383
 C          5.8077848394        0.9544078307       -1.0087424070
 S          7.5237890886        0.6621367490       -0.9915315796
 C          7.6917899089        1.4242928022       -2.5615246273
 C          8.8744803336        1.5830336540       -3.2612866336
 C          8.8314586456        2.2113395768       -4.4926147062
 C          7.6260427443        2.6719474479       -5.0125332337
 C          6.4474127036        2.5117781788       -4.3128690911
 C          6.4638240204        1.8818733502       -3.0706190017
 C          5.3709241589        1.6066390408       -2.1772950359
 C          4.0129025960        1.8891649076       -2.3557009302
 C          3.0828378124        1.5272130815       -1.4073326428
 C          3.5256675812        0.8847510837       -0.2519320098
 C          0.5356971518        1.3370104731        0.7859411888
 C          1.0602658493        2.6196522085        0.7512164868
 N          1.5023910658        3.6885904479        0.7176505128
 C         -0.8801123964        1.1188236364        0.7928123874
 N         -1.7381343499        2.2300735796        0.7675968054
 C         -2.7734299598        2.3994513004       -0.1274892611
 C         -2.9965554516        1.7560206544       -1.3361181347
 C         -4.1379488347        2.0899851891       -2.0411994685
 C         -5.0205470261        3.0562426594       -1.5691473486
 C         -4.7649562413        3.7481489956       -0.3972245639
 C         -3.6280824677        3.4290922143        0.3269488251
 C         -3.0493338982        3.9226845892        1.5483065732
 C         -3.4246401095        4.9028667576        2.4525166678
 C         -2.6347657663        5.1096651915        3.5694923667
 C         -1.4916037102        4.3472128868        3.7923326577
 C         -1.1007465497        3.3593401969        2.9086462131
 C         -1.8816364405        3.1586897937        1.7792865829
 C         -1.3969201738       -0.1575556225        0.8097001809
 N         -2.7896658383       -0.3525202311        0.8122900027
 C         -3.6565447551        0.2544966933        1.6956543177
 C         -3.3831176628        0.8622349737        2.9125052611
 C         -4.4422100704        1.4170041774        3.6042245161
 C         -5.7435457058        1.3517548598        3.1110675895
 C         -6.0294188982        0.7007907503        1.9252837195
 C         -4.9803669257        0.1383787862        1.2136816504
 C         -4.8919441423       -0.5967020652       -0.0132525660
 C         -5.8058561644       -0.9953884770       -0.9754362843
 S         -7.5221619673       -0.7044074590       -0.9717233913
 C         -7.6880019821       -1.5306314472       -2.5092025030
 C         -8.8699298299       -1.7193066096       -3.2027920962
 C         -8.8251915065       -2.3976229004       -4.4072328344
 C         -7.6188362123       -2.8778427241       -4.9068301600
 C         -6.4409721106       -2.6877688810       -4.2133822537
 C         -6.4591159610       -2.0074004731       -2.9980623025
 C         -5.3672926526       -1.6945933337       -2.1158467643
 C         -4.0088427264       -1.9828750032       -2.2812775901
 C         -3.0800358590       -1.5816194700       -1.3475975370
 C         -3.5245702863       -0.8928904776       -0.2198349886
 H          2.3001959071       -1.0924922515       -1.6745603717
 H          4.3470730958       -1.7063494532       -2.9057397268
 H          5.9101927382       -3.3626418936       -2.0010549808
 H          5.4358489367       -4.5158916517        0.1333927867
 H          4.3157316421       -5.3873820857        2.5106879610
 H          2.9064771647       -5.6900312137        4.5207206419
 H          0.8952734714       -4.3335962667        4.8558459947
 H          0.2124636091       -2.6427472037        3.2030720684
 H          2.3758001525       -0.7568840496        3.3461287604
 H          4.2491036660       -1.7216842969        4.6252919826
 H          6.5382510131       -1.6524944270        3.7558210909
 H          7.0392516647       -0.5625309477        1.5898542032
 H          9.8049215889        1.2239057771       -2.8498381639
 H          9.7433804535        2.3458351244       -5.0542481450
 H          7.6146753717        3.1611481453       -5.9749098297
 H          5.5148547580        2.8726799540       -4.7191108945
 H          3.6935524331        2.3913775712       -3.2554022573
 H          2.0363839481        1.7404130897       -1.5570136519
 H         -2.2994488500        1.0261117703       -1.7192262718
 H         -4.3458578620        1.5893868244       -2.9750817370
 H         -5.9092800120        3.2811114017       -2.1390869419
 H         -5.4356249669        4.5203084943       -0.0531964088
 H         -4.3162782853        5.4879149664        2.2869278973
 H         -2.9079373811        5.8718962134        4.2836752952
 H         -0.8973110719        4.5296891666        4.6748646752
 H         -0.2141016601        2.7727695398        3.0927326026
 H         -2.3798547639        0.8953522582        3.3093971604
 H         -4.2551448364        1.9109179875        4.5455862929
 H         -6.5432183366        1.8048513000        3.6769878150
 H         -7.0410961179        0.6264391541        1.5570994528
 H         -9.8011064606       -1.3446284080       -2.8071788142
 H         -9.7364947985       -2.5561087246       -4.9635873777
 H         -7.6061248823       -3.4061385447       -5.8482950433
 H         -5.5076855454       -3.0640197550       -4.6037138246
 H         -3.6881472873       -2.5211497314       -3.1593902916
 H         -2.0332531981       -1.7998023782       -1.4874782840
