100

C     -7.946346    2.480360   -2.691974
C     -6.848202    2.572622   -1.675777
C     -6.739351    3.685779   -0.842830
C     -5.701210    3.771918    0.085757
C     -4.741690    2.750725    0.202012
C     -3.681857    2.890004    1.259276
C     -4.812808    1.636731   -0.663519
N     -3.821000    0.583077   -0.656557
C     -2.428046    0.926622   -0.869674
C     -2.111220    1.759241   -1.958034
C     -0.789884    2.070104   -2.258316
C      0.251166    1.567721   -1.473872
C      1.573863    1.861350   -1.800706
C      2.623332    1.376087   -1.020907
C      2.402584    0.600573    0.134672
C      3.450103    0.105445    0.971530
N      4.849400    0.432645    0.772229
C      5.291471    1.809255    0.698165
C      6.175008    2.176190   -0.346260
C      6.617750    3.493604   -0.520321
C      7.558608    3.830069   -1.637973
C      6.187829    4.468931    0.375979
C      5.328205    4.131322    1.422169
C      4.882146    2.808893    1.608795
C      3.999453    2.535275    2.795494
C      5.804810   -0.643564    0.655029
C      7.114031   -0.518867    1.181496
C      8.061610   -1.544173    1.102932
C      7.749374   -2.759948    0.490120
C      6.462525   -2.935202   -0.049278
C      5.545716   -1.889582    0.048907
O      4.372027   -2.252633   -0.551270
C      4.518252   -3.521126   -1.010142
C      3.536195   -4.253624   -1.672144
C      3.884769   -5.548387   -2.069213
C      5.156844   -6.065083   -1.809397
C      6.124621   -5.300894   -1.141095
C      5.792280   -3.995772   -0.729790
C      3.126762   -0.731859    2.058181
C      1.805983   -1.043133    2.357417
C      0.768226   -0.537418    1.572928
C     -0.555083   -0.833123    1.898159
C     -1.603342   -0.348447    1.117713
C     -1.377769    0.431372   -0.034879
C     -0.029007    0.755636   -0.350251
C      1.052523    0.276498    0.450512
C     -4.244091   -0.795856   -0.662358
C     -3.538273   -1.782063   -1.394544
C     -3.927979   -3.124662   -1.426077
C     -5.051493   -3.559273   -0.720108
C     -5.783029   -2.621488    0.029712
C     -5.364136   -1.292105    0.035464
O     -6.189054   -0.555982    0.840390
C     -7.142111   -1.390697    1.327287
C     -8.179163   -1.017089    2.178782
C     -9.058627   -2.030218    2.573742
C     -8.892037   -3.344431    2.129473
C     -7.836946   -3.688517    1.271708
C     -6.941497   -2.682469    0.860738
C     -5.877070    1.567335   -1.590519
H     -8.833666    3.030253   -2.360774
H     -7.609184    2.896356   -3.646722
H     -8.248489    1.438547   -2.844355
H     -7.465870    4.492559   -0.903323
H     -5.650598    4.643836    0.734029
H     -3.526994    1.941804    1.782533
H     -2.741795    3.235795    0.820080
H     -3.980315    3.617415    2.022922
H     -2.901134    2.145895   -2.597716
H     -0.582011    2.702279   -3.118674
H      1.812313    2.467818   -2.671584
H      3.632122    1.609867   -1.346036
H      6.496065    1.418179   -1.059463
H      8.560365    3.453419   -1.410435
H      7.623684    4.912111   -1.793061
H      7.211638    3.384849   -2.575918
H      6.516493    5.500330    0.271020
H      5.012308    4.914474    2.109006
H      2.951812    2.467097    2.489961
H      4.308266    1.620115    3.309490
H      4.074232    3.338986    3.537046
H      7.399491    0.401475    1.690367
H      9.051215   -1.393983    1.529543
H      8.488872   -3.552977    0.432858
H      2.556188   -3.833759   -1.864644
H      3.151701   -6.161159   -2.589346
H      5.401427   -7.075350   -2.131270
H      7.109924   -5.712151   -0.945241
H      3.916159   -1.120258    2.697300
H      1.597937   -1.679072    3.214474
H     -0.792430   -1.441362    2.768267
H     -2.616119   -0.585517    1.435553
H     -2.662152   -1.496435   -1.975158
H     -3.348771   -3.836965   -2.010088
H     -5.348629   -4.603347   -0.747819
H     -8.290367    0.007697    2.511894
H     -9.885243   -1.789029    3.238856
H     -9.590783   -4.113163    2.453567
H     -7.716673   -4.712462    0.932273
H     -5.936137    0.718139   -2.268398
