  67
 
 C          2.5829741062        1.0473271774       -0.6599837448
 C          2.0180597491        0.8731001975        0.7541320568
 O          3.0156286064        0.3912716446        1.6865469479
 C          4.1859420739        1.0825798369        1.8105423134
 O          5.1250979855        0.6619698665        0.8085988918
 C          6.2925500371        1.3151556141        0.7750070238
 O          6.5503332038        2.2266946212        1.5356023531
 C          7.2060687104        0.8187688655       -0.2740800284
 C          6.8652836186       -0.2539526405       -1.0966354052
 C          7.7536434907       -0.6871813879       -2.0630430739
 C          8.9802341795       -0.0582425841       -2.2157024474
 C          9.3234598255        1.0089626287       -1.3993522812
 C          8.4411116655        1.4476586534       -0.4307270992
 C          1.4142852676        2.1989221221        1.2708278892
 C          0.0041129153        2.4587917853        0.8287593764
 C         -0.8583762466        1.4771902052        0.5578982071
 C         -0.3816452792        0.1226261556        0.6228523263
 C          0.9533899929       -0.1869288183        0.7210358935
 C          1.0664789620       -1.6025705692        0.6577419725
 C          2.1394516078       -2.4919544717        0.7250294313
 C          1.8802647629       -3.8425195948        0.6678952110
 C          0.5726780421       -4.3251699050        0.5664103428
 C         -0.5075813189       -3.4691901153        0.5001034890
 C         -0.2541424004       -2.1038165564        0.5231607607
 N         -1.1253876799       -1.0344288480        0.4957774098
 C         -2.5165068349       -1.1096956482        0.4061502487
 C         -3.3157658432       -0.3764576078        1.2861277823
 C         -4.6922846874       -0.4608093557        1.2017433850
 C         -5.2672707279       -1.2828514155        0.2493971659
 S         -7.0576002429       -1.3659895870        0.1493970082
 O         -7.4187731690       -2.3922144405       -0.8063321294
 O         -7.5915114607       -1.5010191725        1.4888273866
 C         -7.5331668498        0.2369058773       -0.5046932095
 C         -8.1065342436        1.1768317880        0.3291008281
 C         -8.4345003668        2.4220242092       -0.1834986316
 C         -8.1805278533        2.7082710501       -1.5159795965
 C         -7.6043544119        1.7551886963       -2.3428634586
 C         -7.2749369055        0.5093217648       -1.8349136026
 C         -4.4901869540       -2.0101685669       -0.6322137155
 C         -3.1123729794       -1.9234591940       -0.5586121532
 H          1.7758422877        1.3453639779       -1.3245840850
 H          3.0045793155        0.1087213266       -1.0097267580
 H          3.3566805452        1.8118763292       -0.6852624444
 H          4.0761066967        2.1751076040        1.7380217306
 H          4.6092157813        0.8364544931        2.7942946646
 H          5.9103611857       -0.7379310510       -0.9679124090
 H          7.4897336967       -1.5182094876       -2.6997550385
 H          9.6704092969       -0.4009076619       -2.9722511224
 H         10.2788273575        1.4974784090       -1.5179124850
 H          8.6851463130        2.2754719503        0.2184360635
 H          2.0463585729        3.0358337911        0.9669151790
 H          1.4225054026        2.1616157955        2.3677980732
 H         -0.3035295622        3.4928624592        0.8000905745
 H         -1.8792927436        1.6726655138        0.2697961734
 H          3.1435306744       -2.1146014650        0.8381021354
 H          2.6967054588       -4.5485953958        0.7162946488
 H          0.4047862239       -5.3919739848        0.5450268708
 H         -1.5146824887       -3.8538391817        0.4453392722
 H         -2.8514515982        0.2382429970        2.0415486354
 H         -5.3280953072        0.0824385713        1.8824787448
 H         -8.2962260882        0.9125937041        1.3579699388
 H         -8.8869316036        3.1646040793        0.4558705076
 H         -8.4362425335        3.6787645728       -1.9138818586
 H         -7.4128181575        1.9813092997       -3.3806274199
 H         -6.8366840664       -0.2581888973       -2.4533191178
 H         -4.9795355478       -2.6374343822       -1.3608842754
 H         -2.4929204598       -2.4706626471       -1.2518993229
