  94
 
 C          9.5787289245        3.0127017127       -0.0436001335
 C          8.6460040111        3.1824958985       -1.0533594588
 C          7.4773423656        2.4428616468       -1.0504441331
 C          7.2329936948        1.5124265882       -0.0436947062
 C          5.9780185148        0.7393082062       -0.0367702700
 C          4.7828258881        1.4051288073       -0.1477025241
 C          3.5568835820        0.7158971472       -0.0868554668
 N          2.4011030630        1.3918589411       -0.1837016951
 C          1.2773205097        0.7001626203       -0.1108309282
 C          0.0194609184        1.3966114825       -0.1815703130
 C         -0.0458125510        2.7963187412       -0.2866920068
 C         -1.2638957506        3.4198710843       -0.3087587165
 C         -2.4287130051        2.6268991309       -0.2048485010
 N         -3.6725988819        3.2360469674       -0.1382509942
 C         -4.6573996700        2.8637289328        0.8018090946
 C         -4.7114919843        1.6084264064        1.3918816677
 C         -5.6601156097        1.3247269772        2.3615852912
 C         -6.5809568585        2.2810161593        2.7445846985
 C         -6.5518356557        3.5326383863        2.1517358146
 C         -5.5961086271        3.8269487351        1.1938100648
 O         -5.6173303726        5.0995370945        0.6698432810
 C         -4.9026751929        5.2953667282       -0.4828900980
 C         -5.1710428160        6.4354111712       -1.2234553664
 C         -4.4956326573        6.6667297382       -2.4103739624
 C         -3.5801040851        5.7381195258       -2.8717989256
 C         -3.3120108781        4.5967121100       -2.1349253103
 C         -3.9388389477        4.3781499914       -0.9129617491
 N         -2.3749875962        1.3087632042       -0.1306380905
 C         -1.1951790523        0.6925901468       -0.1198572691
 C         -1.1857491696       -0.7594763727       -0.0372730763
 N         -2.3516757164       -1.3943880965       -0.0966679369
 C         -2.3912556022       -2.7175571460       -0.0213461188
 N         -3.6148540467       -3.3243535948       -0.1398849794
 C         -4.8467141835       -2.6491813942        0.0439138817
 C         -5.1022970875       -1.3670317006       -0.4207002016
 C         -6.3295757367       -0.7725074646       -0.1752782882
 C         -7.3121529278       -1.4468060542        0.5266513238
 C         -7.0825192157       -2.7397890831        0.9645295530
 C         -5.8600423250       -3.3420720318        0.7155237068
 O         -5.6897034508       -4.6462478918        1.1287357746
 C         -4.7875331649       -5.3641390248        0.3868025602
 C         -4.9388445202       -6.7400538497        0.3019900835
 C         -4.0802802407       -7.4778403979       -0.4942152357
 C         -3.1031549379       -6.8378574447       -1.2381026014
 C         -2.9447387510       -5.4655738692       -1.1493124756
 C         -3.7522198207       -4.7210028191       -0.2974898057
 C         -1.2206900112       -3.4768763276        0.2277412113
 C         -0.0163853390       -2.8313818443        0.2638695408
 C          0.0391112603       -1.4379197871        0.0854163841
 C          1.2857218523       -0.7231813826        0.0507449351
 N          2.4199976077       -1.3958073835        0.1537064558
 C          3.5659677015       -0.6994499274        0.0937933601
 C          4.8020060036       -1.3663852563        0.1926069335
 C          5.9880655024       -0.6787069118        0.1229332096
 C          7.2571334505       -1.4262232079        0.1793916373
 C          8.2400217697       -1.2389053786       -0.7893385848
 C          9.4189201519       -1.9594102099       -0.7380575110
 C          9.6353849099       -2.8719031001        0.2816248180
 C          8.6598351723       -3.0709214591        1.2444645678
 C          7.4756792553       -2.3584268092        1.1906427003
 C          8.1728572526        1.3534855711        0.9715608827
 C          9.3356018565        2.1014932152        0.9712648680
 H         10.4907408396        3.5912978426       -0.0457401640
 H          8.8289967988        3.8934692695       -1.8460927381
 H          6.7530720020        2.5680173838       -1.8430420656
 H          4.7549290835        2.4790933247       -0.2569798121
 H          0.8770583151        3.3543779305       -0.3256459494
 H         -1.3397879459        4.4946698920       -0.3617587666
 H         -4.0006873321        0.8595085587        1.0864668865
 H         -5.6737919467        0.3427831498        2.8081478555
 H         -7.3221308990        2.0622537278        3.4970946096
 H         -7.2528932755        4.3050706791        2.4263775907
 H         -5.9079220727        7.1282124087       -0.8490845824
 H         -4.6997006936        7.5616127536       -2.9767756487
 H         -3.0705431126        5.8943861942       -3.8099026979
 H         -2.6061868085        3.8675306216       -2.5030545436
 H         -4.3277440711       -0.8314703941       -0.9403461893
 H         -6.5104047535        0.2287914974       -0.5325296886
 H         -8.2612623715       -0.9750044909        0.7270304593
 H         -7.8335400354       -3.2992542398        1.4996957755
 H         -5.7320100477       -7.2080992440        0.8630664107
 H         -4.1920409093       -8.5491805080       -0.5505902941
 H         -2.4583200995       -7.4048690976       -1.8912906042
 H         -2.1900815181       -4.9640590357       -1.7358378997
 H         -1.2809803918       -4.5372560517        0.4106120564
 H          0.9048751152       -3.3661718373        0.4369557824
 H          4.7899809286       -2.4406822978        0.3011777497
 H          8.0716543002       -0.5355785459       -1.5914869338
 H         10.1723324650       -1.8067577478       -1.4970101343
 H         10.5600640189       -3.4284145575        0.3240435057
 H          8.8215583852       -3.7831564658        2.0407077037
 H          6.7185069417       -2.5054511337        1.9479451292
 H          7.9812374352        0.6515704113        1.7698615023
 H         10.0551528765        1.9717011544        1.7664708292
