  34
 
 C          3.8018034698       -2.2512562434        0.2539778061
 C          2.5204648404       -2.5923418763        0.6581813845
 C          1.4936986602       -1.6542388162        0.5871041314
 C          1.7226971030       -0.3714510499        0.1100810057
 C          3.0641961503        0.0227690890       -0.1851623343
 C          4.0756789472       -0.9605052495       -0.1471129595
 C          3.3823549263        1.3692991168       -0.4308570117
 C          2.4120836986        2.3851731014       -0.3359801081
 C          1.1163248882        2.0154119396       -0.1059161778
 N         -0.0005037575        2.8100848243       -0.0006649935
 C         -1.1170454251        2.0150371772        0.1047555502
 C         -2.4129735381        2.3844243898        0.3344873636
 C         -3.3829039368        1.3682417217        0.4295419997
 C         -3.0642226785        0.0217323791        0.1843877787
 C         -4.0753650440       -0.9619001981        0.1464717374
 C         -3.8009537455       -2.2527208894       -0.2540285820
 C         -2.5193887892       -2.5935499985       -0.6577278407
 C         -1.4929651472       -1.6550626121       -0.5867992786
 C         -1.7225229334       -0.3721361772       -0.1104124394
 C         -0.6955228304        0.6347667710        0.0087339605
 C          0.6953145886        0.6350231240       -0.0093509727
 H          4.5912370603       -2.9884886070        0.2777809506
 H          2.3104551611       -3.5864471313        1.0232086858
 H          0.5098116867       -1.9232966657        0.9380665224
 H          5.0821912072       -0.6771009016       -0.4196266654
 H          4.4082408685        1.6353433577       -0.6344553233
 H          2.6911430198        3.4217150201       -0.4474100953
 H         -0.0007061541        3.8145941924       -0.0009790344
 H         -2.6924170158        3.4209072971        0.4454910180
 H         -4.4089222357        1.6339935861        0.6328494989
 H         -5.0820398187       -0.6787306939        0.4186440131
 H         -4.5901279459       -2.9902355100       -0.2777053269
 H         -2.3089451136       -3.5877398554       -1.0222718979
 H         -0.5089062252       -1.9239333759       -0.9374157600
