  42
 
 N          8.1357875185        0.6401753799        0.1645166498
 C          6.9851978402        0.6911814057        0.1266242490
 C          5.5852795355        0.7534433678        0.0959138382
 C          5.0922404781        2.0604480215        0.0248579446
 N          4.7563327145        3.1555864730       -0.1043964992
 C          4.8523955716       -0.4262908742        0.0060260455
 C          3.4575703194       -0.6038373010        0.0493220545
 C          2.8743100508       -1.7976110864       -0.4640964084
 F          3.7148033093       -2.7259395523       -0.9862739129
 C          1.5375883972       -2.0505501997       -0.5026829083
 C          0.6122117426       -1.0922609751       -0.0235638972
 C         -0.7982426674       -1.3259150987       -0.0717772640
 C         -1.2981353853       -2.6360691593        0.1039348260
 C         -2.6250435514       -2.8765182658        0.3073105209
 C         -3.5748037955       -1.8180749931        0.3089107799
 C         -4.9366470049       -2.0423801467        0.5616498163
 C         -5.8437591545       -1.0086337938        0.5313633595
 C         -5.4345669374        0.3017519807        0.2072980602
 C         -6.3477924031        1.3751562478        0.1414816632
 C         -5.9239880219        2.6488582141       -0.1965224989
 C         -4.5968126647        2.8926257299       -0.4896556563
 C         -3.6430357990        1.8509513164       -0.4333606842
 C         -2.2896759594        2.0528477878       -0.7608475808
 C         -1.3753421015        1.0257879521       -0.6731784152
 C         -1.7476572416       -0.2521142501       -0.2217826451
 C         -3.1233589704       -0.5059860888        0.0145032707
 C         -4.0645656588        0.5471685212       -0.0688983505
 C          1.1530513216        0.0710354827        0.5731557274
 C          2.4999605090        0.2801157801        0.6163999685
 F          2.9411857063        1.3472371592        1.3239571139
 H          5.4385648354       -1.3217170356       -0.1655743313
 H          1.2003893973       -2.9634029856       -0.9663125397
 H         -0.5968853044       -3.4530765978        0.1693893855
 H         -2.9718664773       -3.8804942918        0.5018245686
 H         -5.2667874495       -3.0470566715        0.7813750418
 H         -6.8861393011       -1.1920958410        0.7451198449
 H         -7.3894669964        1.1874081518        0.3547604254
 H         -6.6394359742        3.4564942153       -0.2404205773
 H         -4.2698230226        3.8831569121       -0.7681579911
 H         -1.9692018330        3.0295657437       -1.0917086861
 H         -0.3569454512        1.2010502530       -0.9837772503
 H          0.5114961871        0.7731919941        1.0820991192
