84

O      7.480923   -1.442819   -2.369549
C      7.097479   -1.072440   -1.262959
C      8.093728   -0.854691   -0.184077
C      7.811223   -1.165370    1.151801
C      8.780871   -0.955739    2.134642
C     10.033155   -0.449549    1.785215
C     10.324344   -0.160022    0.452281
C      9.358745   -0.368009   -0.533446
C      5.646269   -0.851841   -1.038247
C      5.176840    0.173706   -0.209604
C      3.801657    0.359777   -0.036433
C      2.890388   -0.473432   -0.698982
N      1.486531   -0.285369   -0.520295
C      0.555423   -1.306652   -0.312079
C      0.709443   -2.701053   -0.167776
C     -0.424197   -3.489953    0.057678
C     -1.687809   -2.910790    0.162434
N     -2.833747   -3.729937    0.394336
C     -3.855854   -3.451121    1.305587
C     -4.017350   -2.411349    2.246344
C     -5.159753   -2.399313    3.052010
C     -6.113530   -3.402393    2.948426
C     -5.935037   -4.452390    2.044874
C     -4.787718   -4.488502    1.221173
C     -4.316348   -5.420621    0.251283
C     -4.831032   -6.639951   -0.243089
C     -4.147603   -7.331099   -1.246090
C     -2.969491   -6.817820   -1.770820
C     -2.438431   -5.614797   -1.296314
C     -3.108869   -4.935385   -0.256692
C     -1.832980   -1.520886    0.054414
C     -0.698248   -0.708496   -0.172048
C     -0.526875    0.700397   -0.301211
C     -1.430841    1.786272   -0.251172
C     -0.965012    3.093637   -0.447365
N     -1.879194    4.189084   -0.400640
C     -3.142262    4.214241   -0.997831
C     -3.809418    3.283429   -1.822853
C     -5.087600    3.593573   -2.296529
C     -5.688115    4.804721   -1.981710
C     -5.012331    5.742288   -1.197445
C     -3.718528    5.453563   -0.708734
C     -2.783017    6.199670    0.065777
C     -2.815881    7.493528    0.632249
C     -1.736377    7.951482    1.391002
C     -0.634385    7.134629    1.603434
C     -0.576852    5.851571    1.051219
C     -1.651132    5.402708    0.253490
C      0.386223    3.321288   -0.703404
C      1.295032    2.258368   -0.754250
C      0.829651    0.948109   -0.518579
C      3.360718   -1.486881   -1.543361
C      4.735240   -1.668493   -1.717535
H      6.852235   -1.587605    1.440134
H      8.564609   -1.197005    3.172699
H     10.788563   -0.291768    2.551506
H     11.305290    0.220838    0.178760
H      9.593424   -0.152039   -1.573973
H      5.866137    0.842554    0.300153
H      3.463199    1.136778    0.645661
H      1.686521   -3.173851   -0.201316
H     -0.285493   -4.560229    0.199543
H     -3.270078   -1.633658    2.371074
H     -5.296429   -1.597784    3.774510
H     -6.995961   -3.380969    3.582729
H     -6.675431   -5.245089    1.984483
H     -5.763468   -7.037264    0.147974
H     -4.550114   -8.266426   -1.626432
H     -2.456806   -7.351733   -2.567758
H     -1.534270   -5.217086   -1.746666
H     -2.811758   -1.052020    0.107095
H     -2.475680    1.589177   -0.027433
H     -3.348081    2.344139   -2.112339
H     -5.612241    2.879278   -2.927183
H     -6.681575    5.033054   -2.359067
H     -5.480064    6.696852   -0.973369
H     -3.683742    8.130749    0.487277
H     -1.768422    8.946115    1.828247
H      0.191393    7.491994    2.214421
H      0.280711    5.219558    1.259662
H      0.753535    4.322524   -0.921331
H      2.333091    2.458758   -1.002875
H      2.677262   -2.113605   -2.112124
H      5.095575   -2.443118   -2.392611
