  82
 
 C          9.4592771302        1.0402415887        0.2462686446
 C          8.8511464785       -0.3588665551        0.3766380758
 C          9.4849934832       -1.2565779061       -0.6956318563
 C          9.1876732323       -0.8987213501        1.7739201539
 C          7.3415432195       -0.3624381483        0.1948949394
 C          6.6075513126        0.7896023146       -0.0613869301
 C          5.2340211065        0.7473965506       -0.2182747411
 C          4.5627344667       -0.4603806837       -0.1305371949
 N          3.1462003511       -0.5083549455       -0.2978774604
 C          2.6408666866       -0.0955658893       -1.5268865994
 O          3.3938205260        0.2806544481       -2.4161998536
 C          1.1962993738       -0.1446075336       -1.6746431823
 C          0.6137122432        0.2583591085       -2.8974527929
 C         -0.7451291612        0.2008289246       -3.0602690425
 C         -1.5735169370       -0.2322320127       -2.0191550425
 C         -1.0323545902       -0.6102750041       -0.7845728210
 C         -1.8187253575       -1.0455833677        0.3141278699
 N         -3.2249932117       -0.9657828139        0.2530800417
 C         -3.9754896078       -2.1267304622        0.2856167088
 C         -3.3224878018       -3.3670143405        0.3312650325
 C         -4.0396581115       -4.5400534793        0.3916911481
 C         -5.4252275743       -4.5019889935        0.3809323131
 C         -6.0720996200       -3.2843369171        0.2781847937
 C         -5.3756465544       -2.0843873813        0.2229683618
 C         -6.1353889368       -0.7873896701        0.0465985445
 C         -6.8937093843       -0.8544534597       -1.2932711642
 C         -7.1273218852       -0.6281802820        1.2149489785
 C         -5.2163325979        0.4165326558        0.0321353694
 C         -5.7778194024        1.6874083752       -0.0875064145
 C         -5.0298496323        2.8456085864       -0.0487926597
 C         -3.6611715076        2.7291416462        0.1536367646
 C         -3.0736542345        1.4581456248        0.2715499218
 O         -1.7386317373        1.5554909786        0.4987504300
 C         -1.4369319073        2.8788869120        0.5168065302
 C         -0.1827010821        3.4326570780        0.7037956947
 C         -0.0973145067        4.8123270354        0.6776681529
 C         -1.2233150357        5.6087679460        0.4741529672
 C         -2.4733118504        5.0530014066        0.2866985989
 C         -2.5829500732        3.6683627925        0.3059994649
 C         -3.8259394643        0.2740262884        0.1718719422
 C         -1.2142435472       -1.5006062957        1.5072566108
 C          0.1410683719       -1.4762757433        1.6516603632
 C          0.9631273903       -1.0110581564        0.5927692123
 C          0.3817215034       -0.5852525919       -0.6181209103
 C          2.3986716784       -0.9700875580        0.7825407272
 O          2.9485338406       -1.2990320968        1.8280673138
 C          5.2751223858       -1.6229675117        0.1207047636
 C          6.6439484571       -1.5656163396        0.2846072477
 H          9.0617297021        1.7115907970        1.0038159929
 H         10.5374872016        0.9809394284        0.3826750524
 H          9.2680194670        1.4591578679       -0.7388051101
 H         10.5687388395       -1.2502407697       -0.5972373510
 H          9.2251727783       -0.8950522669       -1.6882683050
 H          9.1411615347       -2.2831660674       -0.6069663571
 H          8.7193716485       -0.2811015002        2.5373179908
 H          8.8358920460       -1.9185969369        1.9001549513
 H         10.2644378421       -0.8870146027        1.9311322379
 H          7.0958038739        1.7471074654       -0.1398442758
 H          4.6824713375        1.6537390525       -0.4171255465
 H          1.2710665626        0.6031003496       -3.6796438042
 H         -1.1946607154        0.5035241180       -3.9946797817
 H         -2.6425481279       -0.2665337632       -2.1740409771
 H         -2.2452952822       -3.3995913935        0.3067534809
 H         -3.5189979054       -5.4840376747        0.4347855304
 H         -5.9979049453       -5.4151077907        0.4283002921
 H         -7.1501505176       -3.2760884615        0.2345415877
 H         -6.1887888322       -0.9775539268       -2.1130672135
 H         -7.5826079131       -1.6939601243       -1.3050370641
 H         -7.4614450150        0.0557332148       -1.4624724931
 H         -6.5844545622       -0.5730253218        2.1563575190
 H         -7.7167590520        0.2769588742        1.1055606180
 H         -7.8090908921       -1.4720474650        1.2606280756
 H         -6.8450367257        1.7751490100       -0.2150334211
 H         -5.4931423028        3.8130391891       -0.1548858078
 H          0.6800703351        2.8055269148        0.8589665092
 H          0.8632666647        5.2839628412        0.8169686319
 H         -1.1111177669        6.6823836705        0.4617439628
 H         -3.3425170117        5.6720866598        0.1269487204
 H         -1.8543847258       -1.8074121825        2.3222023068
 H          0.6239343376       -1.7808013885        2.5662308892
 H          4.7547906876       -2.5657766143        0.1924337666
 H          7.1737276905       -2.4854134303        0.4812782950
