  58
 
 C          6.7871075295       -2.4209581669       -1.3077530014
 C          5.5276590516       -2.9947663690       -1.2732754732
 C          4.4301072573       -2.2521027405       -0.8789628310
 C          4.5712564516       -0.9185564484       -0.4991807177
 C          5.8450501314       -0.3346866674       -0.5853120625
 C          6.9410371956       -1.0849969273       -0.9766693109
 O          6.0569529586        0.9853518199       -0.2998726195
 C          4.9503803116        1.7693211915       -0.1067201832
 C          5.1588658511        3.1349405841       -0.0117180012
 C          4.0882904987        3.9900248623        0.1894960210
 C          2.8092862380        3.4720775365        0.2901513673
 C          2.5937697354        2.1085634267        0.2003220637
 C          3.6570813681        1.2332148047       -0.0000892209
 N          3.4893691629       -0.1506263038       -0.0792371103
 C          2.3246781474       -0.7793165859        0.3949302864
 C          2.4199152624       -1.8060733654        1.3195826919
 C          1.2498481002       -2.3795986580        1.8054072766
 C          0.0024621869       -1.8973248799        1.3834551821
 C         -1.2444867917       -2.3818180741        1.8041283572
 C         -2.4150793664       -1.8102800240        1.3172251848
 C         -2.3207238337       -0.7832488760        0.3927906671
 N         -3.4860416926       -0.1563969501       -0.0822498613
 C         -4.5664436780       -0.9260366637       -0.5029173183
 C         -4.4228181695       -2.2592049651       -0.8830713304
 C         -5.5189178210       -3.0036176294       -1.2781297888
 C         -6.7793320693       -2.4319567922       -1.3129675568
 C         -6.9357112319       -1.0963743176       -0.9814933443
 C         -5.8411841562       -0.3443239805       -0.5894078388
 O         -6.0554685267        0.9752674863       -0.3035918205
 C         -4.9502769959        1.7610876882       -0.1099045558
 C         -5.1611154008        3.1263282626       -0.0147021240
 C         -4.0920448985        3.9831864507        0.1869807425
 C         -2.8121886299        3.4673952031        0.2878808753
 C         -2.5943403167        2.1042597369        0.1978781763
 C         -3.6561197108        1.2271674532       -0.0029562904
 N         -1.1378875038       -0.3227192803       -0.0397018894
 C          0.0019951660       -0.8198174765        0.4241901188
 N          1.1414536709       -0.3207962377       -0.0386735354
 H          7.6458819718       -3.0023389107       -1.6037094829
 H          5.3937912389       -4.0274702673       -1.5557850371
 H          3.4489674904       -2.6997338542       -0.8650292508
 H          7.9044274492       -0.6022388078       -1.0141583796
 H          6.1689214910        3.5041391649       -0.0908545663
 H          4.2587630934        5.0522495644        0.2685864311
 H          1.9681461942        4.1299400949        0.4450149477
 H          1.5967948881        1.7055297300        0.2686534693
 H          3.3868737860       -2.1244205068        1.6775014251
 H          1.2934209392       -3.1789229267        2.5285544051
 H         -1.2873762817       -3.1812809541        2.5271645823
 H         -3.3818278415       -2.1303291112        1.6742005770
 H         -3.4409126271       -2.7051509929       -0.8688182832
 H         -5.3831617819       -4.0359963055       -1.5609333820
 H         -7.6369755341       -3.0147155349       -1.6094963950
 H         -7.8999225959       -0.6152723745       -1.0192274981
 H         -6.1717722792        3.4938370643       -0.0940565885
 H         -4.2643369736        5.0451052454        0.2662286836
 H         -1.9722072127        4.1266608757        0.4430707269
 H         -1.5967079624        1.7028802463        0.2664284788
