  99
 
 C          1.1052822495        2.6511824798        1.8269814666
 C          0.0501218301        1.6100405458        1.4306855907
 C         -1.3102418505        2.1864816320        1.7548708753
 C         -2.0485188081        1.6974787792        2.8234528013
 C         -3.2673556459        2.2639989006        3.1533201707
 C         -3.7555460179        3.3290139328        2.4182973637
 C         -3.0240075043        3.8194430616        1.3486798133
 C         -1.8053785681        3.2562602267        1.0168595292
 N          0.1443713720        1.3298921976        0.0082478135
 C         -0.9942599244        0.9976840205       -0.7274982952
 C         -1.9787063036        0.1718934330       -0.2167624066
 C         -3.0921051511       -0.1523208099       -1.0179246093
 N         -4.1506053604       -0.9083655926       -0.4377332819
 C         -5.2032567595       -0.2357908154        0.1478427227
 C         -5.2204987015        1.1654861339        0.1286755251
 C         -6.2659997653        1.8641583345        0.6869190268
 C         -7.3116667786        1.1808967624        1.2879183085
 C         -7.2940883141       -0.2015767263        1.3165880493
 C         -6.2587383248       -0.9342605030        0.7535343809
 C         -6.2968702980       -2.4477874941        0.8037631899
 C         -6.3275086092       -2.8921712652        2.2783864576
 C         -7.5645673291       -2.9335929735        0.0757270935
 C         -5.0876250480       -3.0669802194        0.1345554233
 C         -4.9584751267       -4.4476732290        0.0844710054
 C         -3.8753233415       -5.0604216502       -0.5192716559
 C         -2.8840389268       -4.2812230519       -1.0959533643
 C         -2.9849415843       -2.9091344026       -1.0621369936
 C         -4.0803150571       -2.2837807872       -0.4496750410
 C         -3.1737746904        0.2875970952       -2.3394369847
 C         -2.1822919844        1.0923200808       -2.8555730467
 C         -1.1092511708        1.4740479447       -2.0426426235
 S          0.1506187270        2.6041702193       -2.5236746550
 O          0.1966132833        2.7684569836       -3.9536524891
 O          0.0161023216        3.8070615650       -1.7232629782
 C          1.5175257509        1.6746073233       -1.9400290936
 C          2.6926509925        1.4490114169       -2.6730503110
 C          3.7399015012        0.7815162317       -2.0903563110
 C          3.6275416504        0.3168573375       -0.7689963371
 N          4.7268771663       -0.3189395002       -0.1349268298
 C          5.4132259139        0.3582767773        0.8529752552
 C          5.0558789723        1.6809701135        1.1598544684
 C          5.6972199145        2.3728296432        2.1606085516
 C          6.7207543703        1.7656891093        2.8740411838
 C          7.1044665666        0.4768030163        2.5480668496
 C          6.4771587889       -0.2453688880        1.5430515849
 C          6.9729546044       -1.6328508390        1.1958692744
 C          8.4433831077       -1.5258525068        0.7487998385
 C          6.8606999603       -2.5309967344        2.4425510509
 C          6.1658968513       -2.2592345315        0.0788057798
 C          6.4859411408       -3.5320821519       -0.3695815977
 C          5.7589355281       -4.1641651768       -1.3631755740
 C          4.6621620347       -3.5212444381       -1.9189387348
 C          4.3215828830       -2.2575403261       -1.4964404843
 C          5.0763166981       -1.5981544880       -0.5131042692
 C          2.4252595634        0.4911114368       -0.0481839983
 C          1.3766508501        1.1750714514       -0.6262398823
 H          2.1087658319        2.2363850422        1.8173702442
 H          0.8895146995        3.0158679249        2.8287805718
 H          1.0620631872        3.4858022523        1.1314494780
 H          0.2053166892        0.6916756890        2.0210005296
 H         -1.6677398129        0.8680640326        3.4049045128
 H         -3.8346567617        1.8737203666        3.9857342073
 H         -4.7027535702        3.7754133048        2.6819990165
 H         -3.4008226387        4.6498700667        0.7703088301
 H         -1.2414757755        3.6421313588        0.1794199511
 H         -1.9222481331       -0.2233279125        0.7843994331
 H         -4.4021904100        1.6974383754       -0.3292812454
 H         -6.2659955384        2.9422200196        0.6507086132
 H         -8.1358143874        1.7193774151        1.7301509513
 H         -8.1155596601       -0.7180553254        1.7895009726
 H         -6.3675008020       -3.9749739375        2.3558416880
 H         -5.4317734281       -2.5431265803        2.7884778279
 H         -7.1946435051       -2.4819263469        2.7879243322
 H         -7.6357877538       -4.0171752939        0.1030183828
 H         -7.5374842303       -2.6166337811       -0.9649417784
 H         -8.4576307869       -2.5216934836        0.5367887959
 H         -5.7217488707       -5.0697934213        0.5265898157
 H         -3.8067288930       -6.1371734554       -0.5407626723
 H         -2.0337047511       -4.7446776178       -1.5726188115
 H         -2.2185737577       -2.2979352716       -1.5122076685
 H         -4.0303430879        0.0108162444       -2.9358317855
 H         -2.2167090689        1.4704078461       -3.8637092558
 H          2.7450375945        1.8377440643       -3.6763913742
 H          4.6674180725        0.6282806859       -2.6217327342
 H          4.2776055472        2.1610954324        0.5885689854
 H          5.4037140764        3.3874482533        2.3827354104
 H          7.2262835830        2.2966898436        3.6656467009
 H          7.9208557126        0.0292442342        3.0941207925
 H          9.0566453380       -1.0954409261        1.5352788903
 H          8.5169256924       -0.8898723983       -0.1311867086
 H          8.8447803134       -2.5041273980        0.5003484553
 H          5.8205701796       -2.6034587953        2.7544992550
 H          7.2263286109       -3.5319974126        2.2323311632
 H          7.4391364466       -2.1232544136        3.2665661422
 H          7.3236975678       -4.0546373384        0.0664248191
 H          6.0381370159       -5.1534851830       -1.6911004491
 H          4.0717383354       -4.0090490190       -2.6794693579
 H          3.4614279437       -1.7620579166       -1.9175028415
 H          2.3459027830        0.0674407252        0.9412564650
