  62
 
 C          2.6852996573       -3.7719965965       -0.9480968184
 C          1.3595634365       -3.7812060533       -0.6024329009
 C          0.6804439163       -2.5819169692       -0.1994615015
 C         -0.6891061288       -2.5804637911        0.1830390418
 C         -1.3724331861       -3.7793738418        0.5799691110
 C         -2.6980276590       -3.7671861039        0.9260799965
 C         -3.4447585166       -2.5921146138        0.8938507142
 C         -2.8006628848       -1.3984762146        0.4854268605
 N         -3.5399741232       -0.2122139616        0.4220887471
 C         -3.1498558495        1.0141996456        0.9225596699
 C         -2.0114696012        1.3559379984        1.6395767825
 C         -1.8712791496        2.6727138205        2.0454077842
 C         -2.8445350375        3.6265703588        1.7576215087
 C         -3.9982873038        3.2862889804        1.0728205998
 C         -4.1593160384        1.9725271660        0.6537006794
 C         -5.2034383859        1.2786491661       -0.0480085031
 C         -6.4213814490        1.6728359043       -0.5845827612
 C         -7.1909066300        0.7300981624       -1.2447322974
 C         -6.7528513177       -0.5842756705       -1.3865353360
 C         -5.5405231892       -1.0001617513       -0.8615394948
 C         -4.7778687603       -0.0680150138       -0.1712976231
 C         -1.4656532006       -1.3962252853        0.1595702732
 C          1.4612248699       -1.4006058253       -0.1696861679
 C          2.7963130168       -1.4059576343       -0.4951406949
 N          3.5400024669       -0.2227823114       -0.4254392747
 C          3.1549795421        1.0076281021       -0.9200382845
 C          2.0180555319        1.3576299659       -1.6353815034
 C          1.8835081018        2.6768780841       -2.0350439320
 C          2.8608535406        3.6252062691       -1.7429078603
 C          4.0130300453        3.2768366984       -1.0595364490
 C          4.1684261764        1.9604441679       -0.6465921328
 C          5.2095455753        1.2589470012        0.0519753348
 C          6.4290189186        1.6455571544        0.5905958986
 C          7.1945282363        0.6965497532        1.2464088497
 C          6.7510659561       -0.6166972047        1.3817904943
 C          5.5370990805       -1.0250609839        0.8546881414
 C          4.7784020251       -0.0865086112        0.1687821918
 C          3.4362462288       -2.5998071532       -0.9094909986
 H          3.1609605375       -4.6885565231       -1.2689123007
 H          0.8038273158       -4.7025887258       -0.6725656124
 H         -0.8199920607       -4.7030956965        0.6451823717
 H         -3.1768677386       -4.6836481566        1.2423884995
 H         -4.4705625336       -2.5694035013        1.2229513995
 H         -1.2639152605        0.6182201987        1.8873227065
 H         -0.9905501443        2.9633585967        2.5985506742
 H         -2.6985010942        4.6452869863        2.0854150802
 H         -4.7600496642        4.0236858158        0.8700585604
 H         -6.7566571203        2.6947357339       -0.4920087122
 H         -8.1419256493        1.0181395641       -1.6680016503
 H         -7.3661607053       -1.2926549857       -1.9233015782
 H         -5.1956076549       -2.0134909340       -0.9984200785
 H         -1.0271964608       -0.4780844973       -0.1991164647
 H          1.0259652983       -0.4827749820        0.1936607611
 H          1.2672292574        0.6244100054       -1.8864915836
 H          1.0040056645        2.9738614146       -2.5867632962
 H          2.7192178600        4.6460033950       -2.0661154043
 H          4.7779393624        4.0099906086       -0.8532729949
 H          6.7684895025        2.6665044931        0.5029189201
 H          8.1466603314        0.9786264206        1.6711903691
 H          7.3613755490       -1.3301633201        1.9152243433
 H          5.1879906271       -2.0376021315        0.9866768143
 H          4.4622542644       -2.5790659283       -1.2380787970
