  106
 
 C         -4.4781903252        4.8112270633        4.0739701115
 C         -3.4968279695        4.2615610077        3.0352760176
 C         -3.2028945121        5.3761374533        2.0203301201
 C         -2.2037181809        3.8658579278        3.7627082188
 C         -4.0383430506        3.0492801836        2.2948330737
 C         -5.3005720462        2.5130291943        2.5392109010
 C         -5.7767370369        1.4117118602        1.8482101936
 C         -4.9775569228        0.8217782519        0.8820542804
 C         -3.7047848552        1.3578178351        0.6243481768
 C         -3.2379487961        2.4452180920        1.3202799075
 C         -3.0076418257        0.5669285814       -0.4719996280
 C         -2.7955918649        1.3748737805       -1.7300275955
 C         -3.5734817373        2.4907058464       -2.0328254018
 C         -3.3749769337        3.1446284211       -3.2418695934
 C         -2.4064959224        2.6632946022       -4.1034477632
 N         -1.6708252690        1.5973948378       -3.8223232217
 C         -1.8633603440        0.9687955324       -2.6780003178
 C         -1.7268169683        0.0154086706        0.0988992774
 C         -0.5716042765        0.8225648120        0.0924777547
 C          0.6230623301        0.3736497137        0.6337370680
 C          0.6600006482       -0.8952968578        1.1861870340
 C         -0.5188971706       -1.7057183516        1.2534761226
 C         -1.7081792851       -1.2342254709        0.7000993603
 C         -0.1593444014       -2.8953739758        1.9435711510
 C         -0.8545650284       -4.0521874288        2.3025558086
 C         -0.1651901058       -5.0668026018        2.9477945426
 C          1.1899619367       -4.9581340617        3.2327418940
 C          1.9050763324       -3.8055113334        2.8905547392
 C          1.2201957775       -2.7818951470        2.2717797438
 N          1.6925978944       -1.5574448281        1.8059568020
 C          2.9986496577       -1.1018863509        1.9344896536
 C          3.6598754667       -1.1929970302        3.1789882359
 C          4.9594032570       -0.7503098469        3.2960500346
 C          5.6364034992       -0.2279622633        2.2060112608
 C          4.9848740875       -0.1450161976        0.9583049080
 N          5.6761859566        0.3470830040       -0.1510503399
 C          6.9373513765       -0.0554582861       -0.5497502325
 C          7.7677877961       -1.0236369168       -0.0069550267
 C          8.9880764067       -1.2493484128       -0.6217869820
 C          9.3700997245       -0.5366942902       -1.7562438358
 C          8.5356293348        0.4103903268       -2.3188921169
 C          7.3046141494        0.6527564560       -1.7212864668
 C          6.2061919510        1.5168922821       -2.0381982667
 C          5.9788498766        2.4459243832       -3.0467651195
 C          4.7879632293        3.1467651127       -3.0464542730
 C          3.8369375769        2.9483311829       -2.0480906099
 C          4.0420553273        2.0279427247       -1.0343339312
 C          5.2192381748        1.2973784555       -1.0450597627
 C          3.6721853071       -0.5681592758        0.8349639907
 C         -4.0476836458       -0.4924561958       -0.7826129494
 C         -3.9755840270       -1.5072021754       -1.7053776948
 C         -5.0515038769       -2.3848679584       -1.8649073279
 C         -4.9345984419       -3.5062490134       -2.8843410877
 C         -3.7484523480       -4.4034575004       -2.5012126417
 C         -4.6994319286       -2.8968412195       -4.2740472336
 C         -6.1897351776       -4.3803569948       -2.9544925337
 C         -6.1847668411       -2.1925017585       -1.0765109273
 C         -6.2689991323       -1.1696367053       -0.1473829526
 C         -5.1936128062       -0.3097354285        0.0084041067
 H         -4.7024623031        4.0657225625        4.8333690087
 H         -4.0350693499        5.6725589096        4.5700521791
 H         -5.4049801404        5.1346517064        3.6056226880
 H         -4.1120658269        5.6489979154        1.4880902551
 H         -2.4618324315        5.0630128870        1.2900075406
 H         -2.8248118025        6.2589289393        2.5317543591
 H         -1.8060138033        4.7179065029        4.3102561987
 H         -1.4433524724        3.5237830355        3.0660680352
 H         -2.4018265062        3.0624992595        4.4693619784
 H         -5.9393400447        2.9539976887        3.2870408231
 H         -6.7585215688        1.0169958309        2.0644884415
 H         -2.2541548528        2.8323177717        1.1045525921
 H         -4.3169787452        2.8418977504       -1.3324377078
 H         -3.9601329437        4.0128849125       -3.5032776448
 H         -2.2025951059        3.1387595405       -5.0530828377
 H         -1.2329907928        0.1063095157       -2.5007811155
 H         -0.6115961974        1.8032157353       -0.3550041429
 H          1.4928455899        1.0112281717        0.6349580092
 H         -2.6011087834       -1.8381159722        0.7413378074
 H         -1.9046806537       -4.1495709158        2.0750037296
 H         -0.6902206759       -5.9684546864        3.2281164335
 H          1.7045215758       -5.7721399015        3.7186352883
 H          2.9631815484       -3.7391706734        3.0925402371
 H          3.1215105264       -1.5640379871        4.0365135452
 H          5.4559734073       -0.8022367198        4.2536767745
 H          6.6426640487        0.1452142548        2.3064212802
 H          7.4707030050       -1.5966781651        0.8582463852
 H          9.6533752274       -1.9967079233       -0.2162712205
 H         10.3307311386       -0.7386184402       -2.2064473529
 H          8.8274951693        0.9500061964       -3.2069822647
 H          6.7226767675        2.6156185188       -3.8102816859
 H          4.5914527863        3.8689824289       -3.8247963087
 H          2.9232907262        3.5231363567       -2.0632219940
 H          3.3104043110        1.8987182906       -0.2524351837
 H          3.1864328231       -0.5448273178       -0.1289869219
 H         -3.0813198708       -1.6199563429       -2.2994141340
 H         -2.8153875952       -3.8469930383       -2.4926201801
 H         -3.6512830072       -5.2205252055       -3.2130369488
 H         -3.9015040286       -4.8260187463       -1.5100890743
 H         -4.6253775652       -3.6847367340       -5.0207410285
 H         -5.5273476924       -2.2435150418       -4.5422808933
 H         -3.7836376872       -2.3131264604       -4.3038676318
 H         -6.0457192410       -5.1604084651       -3.6995065324
 H         -6.3865316917       -4.8619244989       -1.9993425594
 H         -7.0589740533       -3.7951516326       -3.2458070062
 H         -7.0316999343       -2.8511716424       -1.1793351539
 H         -7.1621493585       -1.0480202074        0.4476624439
