  53
 
 C         -7.5426296027       -2.5311487825        0.1815403733
 O         -6.2024437158       -2.9797787051        0.2344783940
 C         -5.1995436139       -2.0857114406        0.1715817938
 C         -3.9007475862       -2.6375389364        0.2455243161
 C         -2.7768155348       -1.8524735503        0.1848750250
 C         -2.9437392049       -0.4734473072        0.0348061446
 C         -4.2460589378        0.0958590383       -0.0004177479
 C         -5.3725400655       -0.7027735777        0.0609023902
 C         -4.0618035560        1.5219406410       -0.0885315443
 C         -4.9348195085        2.5939066660       -0.1712154611
 C         -4.4052240333        3.8718049184       -0.2819426848
 C         -3.0305252623        4.0777966138       -0.3331996160
 C         -2.1386035193        3.0190905404       -0.2534476156
 C         -2.6623613362        1.7430262306       -0.1043530887
 N         -2.0057910585        0.5235267936       -0.0251579570
 C         -0.6300674431        0.3492970378       -0.0205378905
 C         -0.0252773327       -0.6390151263       -0.8235507724
 C          1.3283167416       -0.8078447852       -0.8200839718
 C          2.1823573308       -0.0080918036       -0.0079398676
 C          3.5904217500       -0.1848951002       -0.0022888132
 C          4.5087268085        0.8997727501        0.2434796733
 C          4.0923950254        2.2301014358        0.3538978386
 N          3.8253909962        3.3521421044        0.4120412248
 C          5.8832454617        0.6692195827        0.2456120450
 C          6.8656408255        1.7733123129        0.4834703370
 N          6.4001350071       -0.5373476918        0.0270832165
 C          5.6055993335       -1.5782700005       -0.2093304206
 C          6.2891896697       -2.8915119640       -0.4309624764
 C          4.2168585322       -1.4621569184       -0.2389513244
 C          3.4902563916       -2.6490392978       -0.3757494014
 N          2.9608950965       -3.6721748554       -0.4575299507
 C          1.5480284354        0.9794103664        0.7990971915
 C          0.1953612591        1.1554371041        0.7895490062
 H         -7.7496541957       -2.0114647631       -0.7577407102
 H         -8.1531061763       -3.4303489170        0.2411006310
 H         -7.7748432293       -1.8765649785        1.0258517819
 H         -3.8206119601       -3.7064611224        0.3607343420
 H         -1.7953255054       -2.2911290758        0.2676146468
 H         -6.3517021295       -0.2550973794        0.0300322671
 H         -6.0022369650        2.4391907304       -0.1554192775
 H         -5.0694621877        4.7202801299       -0.3443716343
 H         -2.6467131412        5.0803589509       -0.4437121189
 H         -1.0750692949        3.1865347103       -0.3206691457
 H         -0.6390250956       -1.2178602432       -1.4975905387
 H          1.7698454071       -1.5254083248       -1.4937123555
 H          6.7261192810        2.5723803155       -0.2438184564
 H          6.7244447538        2.2011663790        1.4756484761
 H          7.8746709079        1.3789044955        0.4015681203
 H          5.9969902748       -3.3192852853       -1.3891831480
 H          7.3653226275       -2.7433018839       -0.4112534784
 H          6.0085266272       -3.6011254752        0.3470886515
 H          2.1485006653        1.5638256292        1.4785730718
 H         -0.2595067535        1.8694969950        1.4597484744
