  67
 
 C         -3.7799755203       -4.1526188046       -0.7981172600
 C         -4.9068516942       -3.3502845441       -0.6894909953
 C         -4.7704420237       -2.0008639931       -0.4257448208
 C         -3.5130023552       -1.4263302269       -0.2534996205
 N         -3.4272708606       -0.0512843350       -0.0230529695
 C         -2.7654709339        0.8695085665       -0.8105851985
 C         -2.0595555573        0.6759575367       -1.9875217381
 C         -1.5321873128        1.7885127995       -2.6145211799
 C         -1.7059582931        3.0670078815       -2.0906747707
 C         -2.4284481818        3.2680600723       -0.9313160974
 C         -2.9718621161        2.1649734687       -0.2865793248
 C         -3.7975091008        2.0088037047        0.8796342097
 C         -4.3246052671        2.8977365377        1.8073741999
 C         -5.1014110859        2.3998125482        2.8356998588
 C         -5.3449634442        1.0333487489        2.9534319465
 C         -4.8288889731        0.1286316555        2.0438218634
 C         -4.0637541702        0.6262575031        0.9995876358
 C         -2.3728259519       -2.2445914233       -0.3246480628
 C         -1.0464684723       -1.7469844478       -0.0378140632
 N         -0.6819334989       -0.5731878590        0.3879279985
 N          0.6458182124       -0.6044402666        0.5692327254
 C          1.0523197135       -1.7981392856        0.2531163221
 C          2.3838381562       -2.3548232230        0.3690476451
 C          2.5253303447       -3.7315658713        0.5483713049
 C          3.7681062608       -4.2894665793        0.7727162881
 C          4.8902648926       -3.4756284579        0.8221066257
 C          4.7698151365       -2.1141389873        0.6144770578
 C          3.5252991472       -1.5378751109        0.3747096570
 N          3.4403612251       -0.1708947757        0.1011600215
 C          3.9403071881        0.8463887150        0.8913397801
 C          4.5537541067        0.7772531716        2.1332131053
 C          4.9544073014        1.9629744092        2.7207077410
 C          4.7445506655        3.1903635091        2.0959975953
 C          4.1175972597        3.2650094529        0.8674119455
 C          3.7086535567        2.0868933613        0.2559007408
 C          3.0491351369        1.7926274669       -0.9868004835
 C          2.6206072790        2.5756226605       -2.0502603653
 C          2.0640457054        1.9528755209       -3.1497517210
 C          1.9376986693        0.5669405757       -3.2004943770
 C          2.3524055803       -0.2320944774       -2.1518578580
 C          2.8973884199        0.3888564494       -1.0382764656
 O          0.0203560512       -2.5821887702       -0.1406055329
 C         -2.5280326917       -3.6032566114       -0.6147666162
 H         -3.8791881967       -5.2040937109       -1.0187097221
 H         -5.8900560323       -3.7742244380       -0.8244831287
 H         -5.6406108724       -1.3643782061       -0.3651349923
 H         -1.9275893842       -0.3119685602       -2.4058508201
 H         -0.9733734823        1.6637039624       -3.5297140421
 H         -1.2744147457        3.9114725967       -2.6073522982
 H         -2.5759082796        4.2615710325       -0.5350104493
 H         -4.1271383189        3.9559033308        1.7243645499
 H         -5.5229754558        3.0754957323        3.5653790040
 H         -5.9482574774        0.6723379002        3.7736321645
 H         -5.0128574388       -0.9304624264        2.1484129431
 H          1.6431356002       -4.3543019066        0.5307814941
 H          3.8612802877       -5.3547270047        0.9160904790
 H          5.8631037163       -3.9053631201        1.0053954482
 H          5.6439887268       -1.4805564992        0.6163504883
 H          4.7072556392       -0.1690035230        2.6302101361
 H          5.4383033884        1.9369591036        3.6862079249
 H          5.0724665064        4.0950117380        2.5866296760
 H          3.9446321553        4.2178999138        0.3902964181
 H          2.7298786139        3.6491535516       -2.0187535909
 H          1.7297101442        2.5443282812       -3.9892989851
 H          1.5116856481        0.1047572312       -4.0798216935
 H          2.2639495583       -1.3084708290       -2.2083637435
 H         -1.6476618046       -4.2247974157       -0.6818660080
