  106
 
 C          5.1502179799       -6.6592560863        0.7725402047
 C          6.1573989941       -5.7558303951        0.4711553509
 C          5.8528000320       -4.4286319797        0.2395303288
 C          4.5303266057       -3.9937788174        0.3089976333
 C          4.2064897049       -2.5878292304        0.0651056335
 N          5.2277575423       -1.7490890265       -0.1690455823
 C          4.8923841997       -0.4957351335       -0.4693129723
 C          5.9459186101        0.4732130480       -0.7637055560
 C          5.6469494370        1.6263364130       -1.4844461526
 C          6.6295029619        2.5676200246       -1.7192062260
 C          7.9123816068        2.3678444378       -1.2344380600
 C          8.2155492027        1.2168599415       -0.5237865522
 C          7.2387415766        0.2680820217       -0.2911340815
 N          3.6481831191       -0.0700578016       -0.4905244631
 C          2.6770586171       -0.9276151718       -0.1262403937
 C          1.3422809463       -0.4507652589        0.0179110410
 C          0.2704717196       -1.3607109118        0.0790913660
 C         -1.0357476581       -0.9419619849        0.0862137226
 N         -2.0638420085       -1.8899734249        0.1812641123
 C         -3.0650101717       -1.9013959958        1.1331779710
 C         -3.2583561718       -1.0602082860        2.2193821976
 C         -4.3727060237       -1.2755985847        3.0084446568
 C         -5.2633514171       -2.3116890789        2.7404359824
 C         -5.0505475338       -3.1793676956        1.6854077989
 C         -3.9403124911       -2.9810640154        0.8789573256
 C         -3.4186633942       -3.6630091908       -0.2748509806
 C         -3.8306521278       -4.7715478678       -0.9980619690
 C         -3.0918014525       -5.1518467418       -2.1038903333
 C         -1.9618414730       -4.4357768910       -2.4952174171
 C         -1.5306647147       -3.3282961796       -1.7907237458
 C         -2.2592519586       -2.9510182521       -0.6694280433
 C         -1.3413196023        0.4496796106        0.0206032785
 C         -2.6761555804        0.9271682636       -0.1206680175
 N         -3.6476845501        0.0712276948       -0.4876969606
 C         -4.8918002112        0.4969408481       -0.4636190453
 C         -5.9456913074       -0.4706172325       -0.7613161751
 C         -5.6472887834       -1.6209831169       -1.4866987766
 C         -6.6301810592       -2.5610750197       -1.7247731031
 C         -7.9128305641       -2.3628448629       -1.2387643960
 C         -8.2154382923       -1.2145699236       -0.5234997382
 C         -7.2382759467       -0.2669913265       -0.2874732608
 N         -5.2268445869        1.7490334373       -0.1577317946
 C         -4.2052858155        2.5867199134        0.0787774844
 C         -4.5286723247        3.9917438477        0.3285939438
 C         -5.8513146086        4.4267541463        0.2638312206
 C         -6.1554543572        5.7530821457        0.5010070216
 C         -5.1476101217        6.6554807337        0.8032493732
 C         -3.8302387888        6.2278769060        0.8673185978
 C         -3.5186854382        4.9033384647        0.6320046265
 N         -2.9393208739        2.2263831934        0.1188171679
 C         -0.2694633997        1.3593778824        0.0846011193
 C          1.0367739238        0.9406221405        0.0891883455
 N          2.0648491624        1.8883586159        0.1871360935
 C          2.2594731337        2.9526307958       -0.6596738966
 C          1.5300414874        3.3340015473       -1.7790548022
 C          1.9605286922        4.4441931468       -2.4796804798
 C          3.0906145692        5.1590109949       -2.0864456098
 C          3.8303117916        4.7746838128       -0.9825662504
 C          3.4190482750        3.6633554892       -0.2632676721
 C          3.9416692481        2.9771148840        0.8875684309
 C          5.0524949659        3.1725439604        1.6938807776
 C          5.2662817228        2.3008874690        2.7454404637
 C          4.3760234897        1.2636402784        3.0101874173
 C          3.2610889006        1.0510532336        2.2211769970
 C          3.0667370441        1.8963367092        1.1383422369
 N          2.9405139497       -2.2277563217        0.1078311978
 C          3.5210082439       -4.9064102305        0.6114716669
 C          3.8330298615       -6.2318074280        0.8412806672
 H          5.3914552454       -7.6965810491        0.9536974668
 H          7.1831972451       -6.0903183229        0.4167831475
 H          6.6235392693       -3.7124544120        0.0007509422
 H          4.6454105435        1.7655065465       -1.8609934705
 H          6.3929195998        3.4602949718       -2.2795144697
 H          8.6788454467        3.1079598493       -1.4135445317
 H          9.2173179294        1.0621141986       -0.1502763541
 H          7.4541501013       -0.6316336465        0.2643634689
 H          0.5070593044       -2.4128788369        0.1185887873
 H         -2.5715856916       -0.2544242102        2.4321563222
 H         -4.5568941754       -0.6243957915        3.8501211527
 H         -6.1285515081       -2.4403193060        3.3733851222
 H         -5.7351983552       -3.9898701567        1.4869849176
 H         -4.7120141943       -5.3204825138       -0.7029178727
 H         -3.3951109305       -6.0131694676       -2.6804088265
 H         -1.4130682185       -4.7528523275       -3.3695002901
 H         -0.6613477364       -2.7705675165       -2.1036359127
 H         -4.6459434471       -1.7589169177       -1.8641778475
 H         -6.3940502902       -3.4516105476       -2.2886632218
 H         -8.6795742695       -3.1020485117       -1.4205022608
 H         -9.2170316802       -1.0610094305       -0.1490515273
 H         -7.4532241375        0.6306059666        0.2716096487
 H         -6.6225730028        3.7113908580        0.0242864924
 H         -7.1813959283        6.0876908293        0.4503046665
 H         -5.3884758692        7.6921386734        0.9887094633
 H         -3.0454648969        6.9321265169        1.1024866364
 H         -2.4991762451        4.5541250091        0.6799821709
 H         -0.5060403660        2.4113722441        0.1283732028
 H          0.6606174986        2.7772794032       -2.0934570512
 H          1.4110981107        4.7644355910       -3.3523972420
 H          3.3933585380        6.0225586528       -2.6599260959
 H          4.7117730003        5.3226788862       -0.6859727489
 H          5.7368611403        3.9839096128        1.4980003821
 H          6.1319621243        2.4272526093        3.3781859216
 H          4.5609840071        0.6092674020        3.8492379427
 H          2.5746340532        0.2443317530        2.4314134952
 H          2.5016360233       -4.5572972703        0.6631347356
 H          3.0487747633       -6.9368512672        1.0757923899
