52
 xtb: 6.7.1 (edcfbbe)
C           -4.96057554084531       -2.74652800674734        0.27774450331533
C           -3.71541063971681       -1.91876551737793        0.23967105851974
C           -2.63368619800861       -2.18758513592136        1.07328545898283
C           -1.49694501256937       -1.40456751231758        1.06072134226642
C           -0.38920858284607       -1.70185338426083        2.02062003569345
C           -1.36491806902516       -0.33437058122121        0.12597844613030
B           -0.00214922187564        0.39523052930161        0.00129150880282
C           -0.01018171284474        1.95352616169729        0.00098725215051
C           -1.02351804760038        2.68117902031929        0.65251859445109
C           -1.02471503486746        4.05950707932389        0.65145376712485
C           -0.02251916670264        4.76909019324262        0.00167733015725
C            0.98588390051377        4.06866153318568       -0.64842083644633
C            0.99653453397815        2.69038364023253       -0.65055036371623
C            1.36684258929973       -0.32189846479987       -0.12373864170150
C            2.48800242328533       -0.01962827907516        0.69809486076939
C            2.43887905439209        1.10226187047705        1.68949559178673
C            3.61994441403416       -0.80348890293385        0.64222247889592
C            3.73159400495735       -1.88549218479626       -0.23651639560914
C            4.99351063372133       -2.68686123955597       -0.28512198412910
C            2.65265168260230       -2.16462752531536       -1.06975658360630
C            1.50882667242272       -1.39154206356947       -1.05768602372959
C            0.40310452761814       -1.70083493719242       -2.01605629701004
C           -2.48810996619183       -0.04322200236025       -0.69662360713813
C           -2.45024056217910        1.07969083255775       -1.68731350409957
C           -3.61264953870247       -0.83829155389473       -0.64127942960735
H           -5.84941957994903       -2.12582458751312        0.17266981400557
H           -5.02651742402765       -3.30504905577425        1.21747226102167
H           -4.95308602493202       -3.46704246211524       -0.54329960235895
H           -2.70471000286792       -3.00775454073412        1.77478754788241
H           -0.70048472997091       -2.44389204428179        2.75565162489447
H            0.47994850831815       -2.08166846396781        1.48876645580032
H           -0.08162500594268       -0.79497184350488        2.53959532604620
H           -1.80344704847515        2.15152586101122        1.18088049743676
H           -1.81246546481349        4.59171793102547        1.16625382327210
H           -0.02559674124752        5.84847171872904       -0.00019185209138
H            1.77161563093675        4.60539578690311       -1.16521415883851
H            1.78221035706759        2.16521164784881       -1.17826842783916
H            2.67819294955091        2.04946542588031        1.21499060471445
H            3.14979226656844        0.93187109426780        2.49740623544008
H            1.43595895205925        1.19735372542336        2.10897695826409
H            4.45181019682021       -0.57855618037233        1.29770980854821
H            5.15323677581048       -3.19270246692105        0.66625335044256
H            4.94945214794592       -3.43633274133051       -1.07883711284339
H            5.85725806901183       -2.03843768537896       -0.46607547625974
H            2.72949855405065       -2.98319683366246       -1.77265223640503
H           -0.46251960404491       -2.09097325389120       -1.48058346770812
H            0.71895958667469       -2.43923509043340       -2.75044082527580
H            0.08172794099367       -0.79754224996224       -2.53211865115267
H           -3.15862572426699        0.90410041792756       -2.49462099713187
H           -1.44860156857884        1.18883580268797       -2.10257982633342
H           -2.70232511569231        2.02485924313840       -1.20945658522828
H           -4.44540428040249       -0.62173658097227       -1.29985210671688
