  73
 
 C          1.3292781538       -4.4748707407        0.5544854730
 C         -0.1356713834       -4.6592192036        0.1794191947
 C         -0.8392153763       -3.3197503106       -0.0277136845
 C         -2.2996596110       -3.5044301593       -0.4363116838
 C         -3.0291163011       -2.1825975821       -0.7026179071
 C         -4.2725976954       -2.3847907382       -1.5780254664
 C         -3.9366703324       -2.6218793756       -3.0456485524
 C         -3.4226476035       -1.5190465764        0.6306618249
 N         -3.8108054328       -0.1450556097        0.4637959758
 C         -5.0874220579        0.3558530563        0.4202348162
 C         -6.2988603405       -0.2887337049        0.5977651492
 C         -7.4607982518        0.4777923352        0.5108676517
 C         -8.7116437832       -0.1501904405        0.6853503332
 N         -9.7282914384       -0.6637760011        0.8272313707
 C         -7.4162329599        1.8589405041        0.2525165739
 C         -6.2111856224        2.4982229656        0.0789836799
 C         -5.0347394447        1.7551749963        0.1617688941
 C         -3.6568744421        2.0917955470        0.0391313908
 C         -2.9745556437        3.2861082948       -0.2108564818
 C         -1.6063864742        3.2704316619       -0.2647471408
 C         -0.8779464328        2.0710663280       -0.0662686957
 C          0.5084109582        2.0866149184       -0.1198653367
 C          1.7327425243        2.0838376032       -0.1624746845
 C          3.1031758723        2.0966411573       -0.2161076584
 C          3.7909163308        3.3001982393       -0.5205285531
 C          5.1447881818        3.3422280190       -0.5895040170
 C          5.9394952433        2.1704009879       -0.3541910422
 C          7.3295456414        2.1987622548       -0.4234906086
 C          8.0813657404        1.0587536715       -0.1909568998
 C          7.4630724125       -0.1598498555        0.1239380067
 C          8.2054738461       -1.3404635526        0.3693637449
 C          7.5654100019       -2.5269560734        0.6798355612
 C          6.1904595987       -2.5889373842        0.7580374877
 C          5.3989899237       -1.4340475221        0.5202734113
 C          4.0017883660       -1.4608429786        0.5918844141
 C          3.2538994543       -0.3193119865        0.3505919315
 C          3.8693678496        0.8895357918        0.0347044798
 C          5.2812283550        0.9512390252       -0.0404233047
 C          6.0466321708       -0.2129853362        0.2003681297
 C         -1.5517253269        0.8621189066        0.1846843083
 C         -2.9292154785        0.8856059334        0.2306222604
 H          1.8115808314       -5.4383524799        0.7022637799
 H          1.8572606768       -3.9434818543       -0.2350168644
 H          1.4165276124       -3.9025365275        1.4762925825
 H         -0.6464121839       -5.2169489187        0.9677323689
 H         -0.2027385295       -5.2475159434       -0.7384492438
 H         -0.7737505204       -2.7436266769        0.8982785798
 H         -0.3165571837       -2.7583303446       -0.8064984847
 H         -2.8308916586       -4.0584837002        0.3417442844
 H         -2.3231121355       -4.1121815402       -1.3417827547
 H         -2.3488595472       -1.5046927428       -1.2300520675
 H         -4.8510403371       -3.2278759002       -1.1925244505
 H         -4.9003437289       -1.4933448807       -1.5144459478
 H         -4.8499718918       -2.7343492263       -3.6247927063
 H         -3.3783291856       -1.7789595335       -3.4476151997
 H         -3.3404780946       -3.5212121893       -3.1780140255
 H         -4.2525796632       -2.0663824546        1.0826499339
 H         -2.5779041060       -1.5522702122        1.3251505025
 H         -6.3681155402       -1.3479637352        0.7948846272
 H         -8.3445252612        2.4071635982        0.1937552019
 H         -6.1725174644        3.5586695719       -0.1177232655
 H         -3.5240714175        4.2035938172       -0.3582055815
 H         -1.0529544108        4.1773807110       -0.4571892596
 H          3.2005813393        4.1876847240       -0.6998234598
 H          5.6563420608        4.2641715961       -0.8246177411
 H          7.8251649602        3.1289304146       -0.6630442069
 H          9.1592479005        1.1009035495       -0.2499232954
 H          9.2829327307       -1.2992062744        0.3104095332
 H          8.1521540668       -3.4157911561        0.8634582818
 H          5.6937366145       -3.5165844489        1.0009128662
 H          3.5071735946       -2.3880177368        0.8405184085
 H          2.1755680737       -0.3577050670        0.4082352984
 H         -0.9842205301       -0.0435597294        0.3327431950
