85

C     -7.146908   -4.956589    0.611724
C     -6.419336   -3.654211    0.462428
C     -6.847799   -2.701484   -0.464406
C     -6.146606   -1.501138   -0.623169
C     -4.996282   -1.219390    0.135305
N     -4.258686    0.011085   -0.048408
C     -4.902062    1.261772   -0.386831
C     -6.189296    1.572905    0.086783
C     -6.802165    2.793509   -0.218222
C     -6.144274    3.738578   -1.009484
C     -6.782614    5.063129   -1.305171
C     -4.853912    3.455353   -1.465331
C     -4.242343    2.234384   -1.157872
C     -2.805540   -0.007889    0.118564
C     -1.992008   -0.593352   -0.902989
C     -2.533800   -1.149788   -2.091293
C     -1.739188   -1.727101   -3.081068
C     -0.368013   -1.756529   -2.916951
C      0.195392   -1.199956   -1.768678
C     -0.586762   -0.604096   -0.741875
C     -0.005677   -0.017948    0.427876
C      1.468794   -0.003742    0.581281
C      2.227205    1.067362    0.083285
C      3.617388    1.090473    0.229089
C      4.284355    0.037870    0.870033
P      6.075065    0.008762    1.095285
O      6.422344    0.014181    2.575391
C      6.803818    1.422353    0.240991
C      6.891366    1.481706   -1.159089
C      7.452353    2.596124   -1.787854
C      7.933153    3.661498   -1.026292
C      7.854620    3.615800    0.364832
C      7.293766    2.502760    0.994163
C      6.721817   -1.469912    0.280761
C      7.903915   -2.048193    0.768389
C      8.446308   -3.179617    0.159437
C      7.812581   -3.747504   -0.944347
C      6.636443   -3.186658   -1.438094
C      6.092496   -2.054295   -0.829455
C      3.523221   -1.025897    1.383271
C      2.134338   -1.050487    1.235691
C     -0.824967    0.562636    1.448558
C     -0.283117    1.142041    2.628114
C     -1.081398    1.688981    3.633174
C     -2.455188    1.671949    3.492340
C     -3.017064    1.115479    2.344112
C     -2.231290    0.562978    1.298289
C     -4.560979   -2.200710    1.041866
C     -5.262496   -3.400730    1.204311
H     -8.202727   -4.850034    0.339134
H     -7.113306   -5.302961    1.649663
H     -6.691929   -5.715421   -0.032923
H     -7.726578   -2.886231   -1.077908
H     -6.494533   -0.796712   -1.374637
H     -6.720956    0.876276    0.730710
H     -7.794152    3.000988    0.177091
H     -6.454583    5.447035   -2.277265
H     -7.873384    4.971417   -1.343585
H     -6.515915    5.788302   -0.529993
H     -4.309211    4.182841   -2.063301
H     -3.241549    2.051676   -1.541044
H     -3.608102   -1.136897   -2.262316
H     -2.197834   -2.149891   -3.970802
H      0.267099   -2.205985   -3.675797
H      1.279840   -1.239473   -1.683686
H      1.729760    1.898257   -0.415765
H      4.163107    1.949875   -0.154047
H      6.521433    0.663860   -1.773440
H      7.517033    2.632701   -2.873311
H      8.372354    4.527621   -1.516729
H      8.233780    4.444717    0.960202
H      7.240175    2.471654    2.082502
H      8.401660   -1.610318    1.633484
H      9.361861   -3.617588    0.548625
H      8.235014   -4.628705   -1.419045
H      6.142527   -3.633567   -2.297856
H      5.174943   -1.632108   -1.232450
H      4.019048   -1.840779    1.910531
H      1.568120   -1.887227    1.642509
H      0.793943    1.170347    2.786226
H     -0.624141    2.118535    4.520737
H     -3.094810    2.086021    4.267423
H     -4.102832    1.110973    2.275479
H     -3.672056   -2.040337    1.646578
H     -4.894066   -4.135313    1.916543
