  38
 
 C         -3.5794444170       -3.2197249380       -0.1412928170
 C         -2.2878961096       -3.4090377319       -0.5989342209
 C         -1.3861713639       -2.3580715868       -0.5985931691
 C         -1.7565155955       -1.1077751990       -0.1155640582
 C         -3.0808017992       -0.9121423341        0.2883876751
 C         -3.9822930294       -1.9640653154        0.2831729098
 O         -3.5302220497        0.3199861756        0.6907661653
 C         -2.7646117901        1.3962298772        0.2977664673
 C         -3.3684587825        2.6415203508        0.3337044468
 C         -2.6555996284        3.7707072019       -0.0348596410
 C         -1.3464307572        3.6420018279       -0.4580490121
 C         -0.7416280480        2.3959130506       -0.5078745952
 C         -1.4331964555        1.2581356024       -0.1153810396
 N         -0.8571029384       -0.0284905773       -0.0774037497
 C          0.4997230409       -0.2582268692        0.1105240444
 C          0.9006161808       -1.3213099856        0.9694269841
 C          2.2284962323       -1.5347827198        1.1780575550
 C          3.1834088609       -0.7072656803        0.5402871920
 C          4.5721479410       -0.8623583086        0.6917940602
 C          5.4366639525       -0.0133611589        0.0531154054
 C          4.9446497781        1.0199303565       -0.7575098676
 C          3.5974371521        1.1995002623       -0.9219884787
 C          2.6847376154        0.3394381143       -0.2792134099
 N          1.3639715112        0.5343539266       -0.4748995376
 H         -4.2813317709       -4.0386819972       -0.1296630141
 H         -1.9740663543       -4.3754579968       -0.9619664051
 H         -0.3819464255       -2.5046033301       -0.9669377425
 H         -4.9899644234       -1.7790742194        0.6203547773
 H         -4.3931720581        2.7035884964        0.6653295706
 H         -3.1290927772        4.7392573072        0.0058858459
 H         -0.7825412472        4.5129579081       -0.7550332721
 H          0.2803393251        2.2893714880       -0.8288258404
 H          0.1521075318       -1.9183807756        1.4672237306
 H          2.5658458562       -2.3203620542        1.8401421180
 H          4.9417919552       -1.6622268376        1.3181320671
 H          6.5035167820       -0.1347326932        0.1695585005
 H          5.6417826080        1.6784307310       -1.2549435571
 H          3.2052534975        1.9888086320       -1.5446950875
