  98
 
 C          7.0594655128       -1.3225036534        0.3332300069
 C          5.6685032463       -0.7715695148        0.2399577576
 C          5.1610035102        0.0653205067        1.2242320025
 C          3.8717487311        0.5560298124        1.1429591642
 C          3.0537569778        0.2207403244        0.0707928290
 C          1.6715091546        0.7385597748       -0.0166562905
 C          0.5926061642       -0.1638087048       -0.0010356118
 C          0.8703030734       -1.6146848163       -0.0374475308
 C          1.5990601665       -2.2261481672        0.9767379957
 C          1.8710660193       -3.5786854660        0.9303076310
 C          1.4300022294       -4.3609484843       -0.1301678746
 C          1.7285649860       -5.8387279037       -0.1899916789
 C          1.0804372700       -6.5706203159        0.9871364767
 C          3.2378004831       -6.0882201649       -0.2213749057
 C          0.7024870158       -3.7462652207       -1.1404481005
 C          0.4240224581       -2.3937505284       -1.0981482588
 C         -0.7073561808        0.3116874765        0.0545613170
 C         -1.7937936849       -0.6878657964       -0.0005334840
 C         -1.8875848698       -1.7187157437        0.9285749259
 C         -2.8829350640       -2.6712633878        0.8210430049
 C         -3.8054580398       -2.6322632103       -0.2160750056
 C         -4.8877839868       -3.6786412486       -0.3196345029
 C         -4.7647051151       -4.4607148161       -1.6287861221
 C         -6.2737012152       -3.0414260810       -0.1953709707
 C         -3.7024139859       -1.6057150770       -1.1484566647
 C         -2.7127600897       -0.6494749719       -1.0462070134
 C         -0.9651903552        1.7050811607        0.0401579480
 C          0.1114806092        2.5882157014       -0.2442570726
 C         -0.2136877141        3.9254544920       -0.6561469275
 N          0.7247932140        4.7549710461       -1.2339376134
 C         -1.5180998210        4.3499855455       -0.6249442710
 C         -2.5666320575        3.5648275264       -0.1097876361
 C         -3.9081698134        4.0648629447        0.0302857325
 C         -4.2854575223        5.3379093147       -0.4335208655
 C         -5.5666372078        5.8075695344       -0.3048565666
 C         -6.5413398940        5.0201569885        0.3081462041
 C         -6.2105161863        3.7752269765        0.7736317864
 C         -4.9057775199        3.2659209225        0.6472234108
 C         -4.5417157323        1.9772800451        1.1521990055
 N         -5.4377188665        1.2254931281        1.8999871697
 C         -3.2676844894        1.5126926041        0.9688492744
 C         -2.2772552827        2.2460181090        0.2846444401
 C          1.4369424078        2.0949345063       -0.1622575459
 C          2.6282202854        2.9729342517       -0.1432345834
 C          2.8243197764        3.8471256758        0.9254331707
 C          3.9789480947        4.6006259428        1.0133692712
 C          4.9705656050        4.5020454146        0.0445238102
 C          6.2160576402        5.3298367844        0.1375231870
 C          4.7709982412        3.6329458906       -1.0210875533
 C          3.6205098884        2.8737549646       -1.1146011863
 C          3.5587097235       -0.6195698025       -0.9156612182
 C          4.8478145380       -1.1061117568       -0.8304439602
 H          7.0301655043       -2.3532136812        0.6885950202
 H          7.6631148749       -0.7410699928        1.0260461795
 H          7.5417204830       -1.3206434215       -0.6423754372
 H          5.7821014184        0.3373353659        2.0663297157
 H          3.4915049571        1.2011665862        1.9221320522
 H          1.9473508837       -1.6359825084        1.8124011833
 H          2.4368196809       -4.0269832176        1.7339096914
 H          1.2982115774       -6.2362254049       -1.1164098228
 H          1.2480856782       -7.6425175618        0.9045877300
 H          1.4986854794       -6.2293197059        1.9308319652
 H          0.0081912251       -6.3867909957        1.0009894700
 H          3.4428042530       -7.1512033312       -0.3307650007
 H          3.6904131887       -5.5591604274       -1.0573146478
 H          3.7059935922       -5.7409305946        0.6962556755
 H          0.3488445233       -4.3344538654       -1.9762468822
 H         -0.1385564359       -1.9333401325       -1.8977219019
 H         -1.1884027921       -1.7622667649        1.7509337397
 H         -2.9419582221       -3.4607776702        1.5578000129
 H         -4.7613507066       -4.3833022602        0.5104527426
 H         -4.9246303765       -3.8098129275       -2.4846809701
 H         -5.5026698301       -5.2595363577       -1.6625451180
 H         -3.7730377705       -4.9001727381       -1.7125932925
 H         -7.0461603162       -3.8065456286       -0.2353814381
 H         -6.3631622548       -2.5105019868        0.7504445091
 H         -6.4477387973       -2.3350280850       -1.0033752044
 H         -4.4020017223       -1.5504717841       -1.9697669861
 H         -2.6453057486        0.1414357222       -1.7795199924
 H          1.6965971653        4.5631425309       -1.0602531899
 H          0.4793887588        5.7306673127       -1.2696198482
 H         -1.7164553021        5.3465587286       -0.9875890836
 H         -3.5575528188        5.9696285631       -0.9168771547
 H         -5.8245148704        6.7883206892       -0.6777850129
 H         -7.5498510182        5.3928158216        0.4139942417
 H         -6.9739392580        3.1813617564        1.2548384438
 H         -6.4122340543        1.3352038005        1.6712120545
 H         -5.1645109220        0.2607142909        2.0119202054
 H         -3.0133981848        0.5630641100        1.4090486270
 H          2.0638662432        3.9252154587        1.6901937630
 H          4.1180472854        5.2684621882        1.8519584563
 H          6.4813049906        5.5161794861        1.1758248921
 H          6.0616743698        6.2943432243       -0.3483485339
 H          7.0481018373        4.8337494286       -0.3566791000
 H          5.5317596149        3.5423206844       -1.7831792145
 H          3.4827927014        2.1996031241       -1.9466665861
 H          2.9367109212       -0.8853926634       -1.7582828649
 H          5.2258538657       -1.7561616979       -1.6071635950
