  72
 
 C          9.2289812296       -2.5422958906        2.5026992467
 C          7.8457451413       -2.5406862007        2.5555018256
 C          7.1128443021       -1.7015659381        1.7347216445
 C          7.7519457384       -0.8502275348        0.8359599451
 C          9.1570742236       -0.8404175091        0.8106898503
 C          9.8836181337       -1.6839745682        1.6335026952
 O          9.8661086403        0.0007699169       -0.0064151022
 C          9.1563611549        0.8413706605       -0.8235031181
 C          9.8821747495        1.6854676113       -1.6464062130
 C          9.2267913036        2.5432599872       -2.5155628790
 C          7.8435519214        2.5405697752       -2.5682472246
 C          7.1113770224        1.7009193929       -1.7473626282
 C          7.7512244692        0.8501106292       -0.8486273293
 N          7.0476157182       -0.0003049223       -0.0062818207
 C          5.6293166330       -0.0003724803       -0.0057989704
 C          4.9226374075        1.1127223540        0.4528511634
 C          3.5493690133        1.1117485464        0.4537279541
 C          2.8103738886       -0.0004373270       -0.0046375792
 C          1.3785054279       -0.0004997559       -0.0038355566
 C          0.5811847247        1.1760754256        0.0341629001
 N         -0.7137770709        1.1766866143        0.0274854573
 C         -1.3920000805       -0.0004784756       -0.0013248638
 C         -2.8111111841       -0.0005086356        0.0005284092
 C         -3.5383528784       -1.2113345031       -0.0169307154
 C         -4.9092375446       -1.2098969640       -0.0135725228
 C         -5.6125159736       -0.0006176887        0.0046867798
 N         -7.0311964212       -0.0007367292        0.0067993182
 C         -7.7357133483       -0.4315129282       -1.1071836081
 C         -7.0959718410       -0.8431477259       -2.2754864025
 C         -7.8299452576       -1.2725179793       -3.3662507907
 C         -9.2141966252       -1.2941890796       -3.3183758113
 C         -9.8691336106       -0.8668817454       -2.1747759988
 C         -9.1416588169       -0.4331256567       -1.0790711405
 O         -9.8479433432       -0.0006411695        0.0108103501
 C         -9.1385261435        0.4318737218        1.0986455996
 C         -9.8628536214        0.8657516011        2.1963862509
 C         -9.2046335285        1.2930999278        3.3380836807
 C         -7.8202539286        1.2713012929        3.3820257932
 C         -7.0894101608        0.8417857566        2.2892213538
 C         -7.7325012498        0.4301757631        1.1227476465
 C         -4.9092952353        1.2087322550        0.0207999718
 C         -3.5384017909        1.2102595930        0.0200558008
 N         -0.7138335698       -1.1776411979       -0.0318296638
 C          0.5811163245       -1.1770651841       -0.0408648835
 C          3.5490418621       -1.1125739627       -0.4636242615
 C          4.9223179016       -1.1134911490       -0.4638947339
 H          9.8011416722       -3.1986693056        3.1389123576
 H          7.3269182630       -3.1933910799        3.2404110687
 H          6.0359161632       -1.6966775453        1.7885979923
 H         10.9601970958       -1.6488380804        1.5797175976
 H         10.9587846954        1.6511820836       -1.5927041338
 H          9.7983856743        3.2000619170       -3.1518425680
 H          7.3241559859        3.1928463795       -3.2531331725
 H          6.0344458276        1.6952084267       -1.8011281640
 H          5.4666205326        1.9715155184        0.8201946478
 H          3.0276421065        1.9741798156        0.8397161241
 H          1.0431230886        2.1567416900        0.0295539030
 H         -2.9849747506       -2.1377759992       -0.0243425301
 H         -5.4598150718       -2.1401288871       -0.0161570672
 H         -6.0189292953       -0.8187678210       -2.3200772475
 H         -7.3126246238       -1.5890009868       -4.2586498651
 H         -9.7862869457       -1.6327380702       -4.1674850594
 H        -10.9456400244       -0.8569986931       -2.1113133679
 H        -10.9395366448        0.8559375960        2.1359946568
 H         -9.7742758654        1.6317475820        4.1887993872
 H         -7.3003610681        1.5877862039        4.2729242370
 H         -6.0122483166        0.8172753635        2.3308307441
 H         -5.4599068052        2.1389386322        0.0250311233
 H         -2.9850836196        2.1367466351        0.0258224203
 H          1.0430323806       -2.1577462921       -0.0375369330
 H          3.0270343952       -1.9750535428       -0.8491306694
 H          5.4660333945       -1.9722561948       -0.8316985112
