  76
 
 C          4.8126283336        4.1003693204       -0.9619483812
 C          3.6808999781        3.9942676449       -0.1697597806
 C          3.1384323666        2.7526137870        0.1062849495
 C          3.7164228982        1.5976368717       -0.4104804159
 C          3.1612443636        0.2329654116       -0.0464779935
 C          1.6467532313        0.2027516833        0.0052514520
 C          0.8934829959        0.9003788705       -0.9344152497
 C         -0.4846362666        0.8188186605       -0.9280069204
 C         -1.1604277054        0.0398397771        0.0092152987
 Si        -3.0539389656       -0.0313757419        0.0080770934
 C         -3.6532990076       -1.4942233144        1.0564438823
 C         -4.0417549943       -2.6975408076        0.4757193986
 C         -4.4681211741       -3.7609566419        1.2520806260
 C         -4.5141512164       -3.6384021778        2.6309096159
 C         -4.1316992387       -2.4473687421        3.2265031447
 C         -3.7064428539       -1.3887857529        2.4441870827
 C         -3.6427834469       -0.2314715311       -1.7845957827
 C         -4.7890814904        0.4036757132       -2.2523984976
 C         -5.2208898566        0.2309009607       -3.5558218630
 C         -4.5093015932       -0.5852157978       -4.4195157911
 C         -3.3634366846       -1.2226584559       -3.9722955393
 C         -2.9373110577       -1.0447609187       -2.6682961155
 C         -3.7630904237        1.5631936775        0.7539788497
 C         -2.9959535201        2.7173684403        0.8779174009
 C         -3.5313039355        3.8781907520        1.4082077845
 C         -4.8514452503        3.9054034829        1.8260108353
 C         -5.6292280606        2.7642855202        1.7143879197
 C         -5.0869181287        1.6071969705        1.1845682733
 C         -0.3980572470       -0.6655458023        0.9341738944
 C          0.9826889557       -0.5951185879        0.9290790582
 C          3.8266743037       -0.1910962357        1.2489435085
 C          3.8079802302        0.4127265098        2.4670796187
 C          4.5268000913       -0.1608167388        3.5331142200
 C          5.2736364991       -1.3466063487        3.3437262549
 C          5.3225616547       -1.9723399918        2.1362431368
 C          4.5930374840       -1.4125807131        1.0332307994
 C          4.4483986716       -1.8200090509       -0.2751412290
 C          4.9695518795       -2.9508954556       -0.9903887743
 C          4.6459840436       -3.1060749362       -2.3027698401
 C          3.8084808911       -2.1837468207       -2.9732000662
 C          3.2829169904       -1.0677601580       -2.2959445649
 C          3.5986430194       -0.8724994197       -0.9875119104
 C          4.8610112586        1.7117025825       -1.1897181653
 C          5.4013559215        2.9547837086       -1.4693722378
 H          5.2353163144        5.0706570059       -1.1785004396
 H          3.2181135090        4.8835032403        0.2339620945
 H          2.2515270206        2.6780783730        0.7191348310
 H          1.3923659701        1.5192687823       -1.6670554490
 H         -1.0521776779        1.3670504321       -1.6671895211
 H         -4.0130020379       -2.7989005257       -0.5999543088
 H         -4.7673359246       -4.6874508973        0.7818927717
 H         -4.8485237317       -4.4666744630        3.2394850552
 H         -4.1668819512       -2.3451136206        4.3023285164
 H         -3.4136195118       -0.4600966541        2.9143073655
 H         -5.3467618436        1.0462957395       -1.5861244511
 H         -6.1140029358        0.7334388409       -3.9003484715
 H         -4.8449157011       -0.7224204469       -5.4377569611
 H         -2.8020972633       -1.8589496567       -4.6425201615
 H         -2.0391028825       -1.5407260340       -2.3268257749
 H         -1.9638103027        2.7025073473        0.5583420270
 H         -2.9185387567        4.7645638994        1.4966967442
 H         -5.2719286035        4.8109637836        2.2399231800
 H         -6.6596703977        2.7779984504        2.0415364837
 H         -5.6971411586        0.7177942682        1.1077243338
 H         -0.8944743979       -1.2878073315        1.6650589290
 H          1.5532662602       -1.1622145156        1.6515465244
 H          3.2450911109        1.3199217497        2.6319069246
 H          4.5099930139        0.3088734048        4.5037516604
 H          5.8160136050       -1.7525578627        4.1861300759
 H          5.8984224561       -2.8728257816        1.9881984329
 H          5.5997343991       -3.6591695302       -0.4750024851
 H          5.0280011122       -3.9510260558       -2.8584748912
 H          3.5747529087       -2.3367320406       -4.0148303610
 H          2.6459483944       -0.3744727030       -2.8257473127
 H          5.3305052476        0.8209291492       -1.5824933966
 H          6.2879228630        3.0271738474       -2.0830007067
