  70
 
 C         -6.9766091657        0.0834470193       -1.2798193602
 C         -6.0917848701        0.0069703203       -0.0211105762
 C         -6.9688656193       -0.0698734498        1.2429951008
 C         -5.2420874055       -1.2467482801       -0.1057632241
 C         -5.8654524235       -2.4849718712       -0.1933126990
 C         -5.1507052402       -3.6620384263       -0.3143339668
 C         -3.7699423900       -3.6083175938       -0.3770069049
 C         -3.1253855616       -2.3919138768       -0.2899887826
 C         -3.8441823994       -1.2036461507       -0.1254067886
 N         -3.1662367399        0.0070712745       -0.0220657265
 C         -1.7528538372        0.0046104593       -0.0114147389
 C         -1.0409642066        0.5424566854       -1.0806981874
 C          0.3386373763        0.5498242239       -1.0646794532
 C          1.0316884463       -0.0014546531        0.0112453213
 C          2.4989738376       -0.0119014665        0.0266167681
 C          3.2392607497        1.1656252745       -0.1587468851
 C          2.5696676015        2.3919943169       -0.3549696329
 N          2.0234555980        3.3890740799       -0.5152575434
 C          4.6483061472        1.0910879570       -0.1642445647
 C          5.4945933637        2.2695413394       -0.3734243318
 C          5.2583499485        3.4913932183        0.2538164233
 C          6.1139667117        4.5490207643       -0.0020840930
 C          7.1814732215        4.3443234080       -0.8645795493
 N          7.4195203996        3.1852700407       -1.4582298235
 C          6.6044454534        2.1799807336       -1.2189861008
 N          5.2842293430       -0.0576075650        0.0024585986
 C          4.6145994930       -1.1800031921        0.2182567099
 C          5.4229327253       -2.3778240056        0.4519756981
 C          6.6119076959       -2.5771140977       -0.2512065418
 C          7.3596093652       -3.7116163321        0.0037464620
 C          6.8927006928       -4.6076960063        0.9561896185
 N          5.7878969542       -4.4083281323        1.6563275033
 C          5.0765198892       -3.3256832703        1.4181299438
 C          3.2044095472       -1.2084092324        0.2254602394
 C          2.4953427731       -2.4272977668        0.2896130545
 N          1.9091802528       -3.4141555547        0.2773118117
 C          0.3181096113       -0.5514574828        1.0748699013
 C         -1.0612243143       -0.5376054521        1.0690340062
 C         -3.8438208402        1.2180696075        0.0768920433
 C         -3.1255019112        2.4074276254        0.2358339377
 C         -3.7703139236        3.6239107522        0.3196293621
 C         -5.1511642898        3.6769887729        0.2597351845
 C         -5.8655066356        2.4991496311        0.1437141014
 C         -5.2419002481        1.2609239309        0.0584757364
 H         -7.6094823669        0.9660692148       -1.2558938462
 H         -7.6160111231       -0.7912611927       -1.3581354283
 H         -6.3518577009        0.1326254176       -2.1701641963
 H         -7.6029639689       -0.9517048786        1.2214817730
 H         -7.6064534230        0.8057304212        1.3264489063
 H         -6.3387478807       -0.1213685312        2.1294093845
 H         -6.9432229833       -2.5376258276       -0.1693434881
 H         -5.6675381329       -4.6080243386       -0.3740788701
 H         -3.1884659685       -4.5105202701       -0.4971015498
 H         -2.0485764291       -2.3655674079       -0.3566928800
 H         -1.5764992158        0.9552924797       -1.9220747478
 H          0.8824598346        0.9559961380       -1.9048310494
 H          4.4381312321        3.6050050096        0.9474655766
 H          5.9614337151        5.5070218054        0.4684795838
 H          7.8842682443        5.1356983889       -1.0879880742
 H          6.8258659044        1.2524271038       -1.7290628012
 H          6.9213069643       -1.8514081539       -0.9877521263
 H          8.2790568188       -3.9012751434       -0.5265390209
 H          7.4257705516       -5.5217495718        1.1807666667
 H          4.2021344162       -3.1961724825        2.0432216968
 H          0.8464365827       -0.9634211046        1.9222321894
 H         -1.6128018569       -0.9508112198        1.8998123462
 H         -2.0485938844        2.3814069297        0.3002711951
 H         -3.1892011656        4.5270089010        0.4350618572
 H         -5.6683699619        4.6228847097        0.3177108851
 H         -6.9433523785        2.5512500265        0.1222979663
