  74
 
 C          0.4799448254       -3.0618037452        1.5066989663
 O          1.2395508323       -1.9297841804        1.1632066109
 C          0.5929568610       -0.7846798680        0.8173334780
 C         -0.7608713859       -0.6500168059        0.7671780518
 C         -1.3956359960        0.5697527013        0.4011571031
 C         -2.7777171035        0.7330018300        0.3079121613
 C         -3.7459307862       -0.2364688967        0.5302426920
 C         -5.1455580955       -0.0595527150        0.4077637670
 C         -5.7574330764        1.1609340325        0.0446435790
 C         -7.1198833502        1.2691143725       -0.0725732639
 C         -7.9450820292        0.1652235618        0.1633464613
 N         -9.3299224863        0.2882249714        0.0431898530
 C        -10.0881489881        1.3487033138        0.4671892138
 N        -11.3588587568        1.2034106973        0.2770857576
 C        -11.5001034255       -0.0211240276       -0.3287269038
 C        -12.6423641974       -0.6721967839       -0.7777845556
 C        -12.4832910525       -1.9020197756       -1.3814158774
 C        -11.2215600124       -2.4733505472       -1.5537204186
 C        -10.0735641988       -1.8446392599       -1.1137108004
 C        -10.2263896099       -0.6203063882       -0.4817607038
 C         -7.3654274523       -1.0495190056        0.5409118800
 C         -6.0030742280       -1.1552936024        0.6575885614
 C         -0.5261423018        1.6916721627        0.1054295298
 O         -1.1729307516        2.8445304167       -0.2127282617
 C         -0.4138358867        3.9887808807       -0.5144646285
 C          0.8277822634        1.5551965161        0.1493694670
 C          1.4627075940        0.3276484437        0.4881096743
 C          2.8451500767        0.1436161494        0.5087843721
 C          3.8144725723        1.0915496688        0.2109997382
 C          5.2141965416        0.8773636862        0.2031820354
 C          5.8250091657       -0.3568241493        0.5181133555
 C          7.1874450362       -0.5122543780        0.4732228933
 C          8.0132131576        0.5553726117        0.1093325767
 N          9.3992500912        0.4009957881        0.0605041002
 C         10.3307611118        1.3019883296        0.5072677967
 N         11.5555357873        0.9065832759        0.3822960640
 C         11.4809942870       -0.3353480011       -0.1995458848
 C         12.4923814708       -1.2071274907       -0.5835479914
 C         12.1224646771       -2.3952645164       -1.1782231117
 C         10.7822612903       -2.7126759349       -1.4044791254
 C          9.7612500566       -1.8619425465       -1.0295548145
 C         10.1227822187       -0.6771349429       -0.4072855821
 C          7.4346888852        1.7934760888       -0.1866702281
 C          6.0728648142        1.9465210805       -0.1409730948
 H          1.2027369596       -3.8390994107        1.7505273485
 H         -0.1533401343       -2.8699267255        2.3786676104
 H         -0.1425288132       -3.3957566911        0.6704667581
 H         -1.3967945176       -1.4845197645        1.0077685031
 H         -3.1040235791        1.7210315280        0.0219744868
 H         -3.4311395444       -1.2307803302        0.8153506118
 H         -5.1460327184        2.0266601970       -0.1531413819
 H         -7.5659002626        2.2077473903       -0.3678136999
 H         -9.6460919130        2.2032666822        0.9425874006
 H        -13.6118399056       -0.2161429127       -0.6590351622
 H        -13.3507768805       -2.4352031215       -1.7412275223
 H        -11.1410474728       -3.4301912653       -2.0480128380
 H         -9.1008225211       -2.2853436750       -1.2714204751
 H         -7.9995723314       -1.8944480038        0.7631127414
 H         -5.5680777004       -2.0985904971        0.9556605174
 H          0.2097316811        4.2909879728        0.3329023077
 H         -1.1370186108        4.7746098721       -0.7278591261
 H          0.2182455564        3.8300026992       -1.3939650959
 H          1.4635703455        2.3928546508       -0.0803141184
 H          3.1710530780       -0.8489876161        0.7789465710
 H          3.5006650719        2.0923246393       -0.0516109527
 H          5.2136996591       -1.1960423729        0.8089627677
 H          7.6345415234       -1.4572555795        0.7430534544
 H         10.0439128231        2.2372053862        0.9486394693
 H         13.5261225719       -0.9469149822       -0.4234340679
 H         12.8838191008       -3.0956212375       -1.4882684120
 H         10.5379733083       -3.6461981184       -1.8894613707
 H          8.7290723507       -2.1074123707       -1.2286437342
 H          8.0680923543        2.6212493150       -0.4702894370
 H          5.6380109812        2.9056692551       -0.3831360022
