  54
 
 C         -6.0288510405        0.2504220183       -1.1794936166
 C         -5.0253014756       -0.0218513297       -0.0436725430
 C         -5.7719930402       -0.4135185162        1.2450943876
 C         -4.2347345644        1.2430017473        0.2248794743
 C         -4.9016784123        2.3935729163        0.6239259171
 C         -4.2309242456        3.5661892879        0.9165049788
 C         -2.8496360161        3.5969776768        0.8304796590
 C         -2.1619360328        2.4707765428        0.4339236790
 C         -2.8406353341        1.2919514232        0.1059148925
 N         -2.1244712780        0.1792495881       -0.3069485136
 C         -0.7136916455        0.2636021451       -0.4188340314
 C         -0.1412278697        0.9447314064       -1.4746292459
 C          1.2477346852        1.0668404629       -1.6476283499
 C          2.0714049078        0.4768285896       -0.7191684473
 C          1.4817235008       -0.2201115426        0.3636498846
 C          2.4618134087       -0.7666801597        1.2265261531
 C          2.0490497221       -1.4717574925        2.3300886159
 C          0.6651088094       -1.6112305039        2.5501589734
 C         -0.2849170029       -1.0816647015        1.7105446751
 C          0.1109490732       -0.3560419806        0.5626826987
 C          3.7423864250       -0.3981943700        0.6588965509
 N          4.9622293678       -0.6628666221        1.0828288288
 C          5.9711691316       -0.2010454239        0.3715504756
 N          7.2579521998       -0.2865488089        0.5158180719
 O          7.8210497050        0.3853465874       -0.5267674790
 N          6.8805346975        0.9141746284       -1.3590056566
 C          5.7206131571        0.5952080054       -0.8716375846
 N          4.4889883420        0.8432124144       -1.2680995468
 C          3.5014812069        0.3660607072       -0.5343261605
 C         -2.7445360687       -1.0271450279       -0.5928852792
 C         -1.9780391775       -2.1076743559       -1.0439646923
 C         -2.5629201736       -3.3246837310       -1.3177716885
 C         -3.9287342218       -3.4842010288       -1.1577216055
 C         -4.6925854577       -2.4093147124       -0.7432193239
 C         -4.1303589362       -1.1717192093       -0.4600078701
 H         -6.6286163968       -0.6313030653       -1.3863041112
 H         -5.4951608670        0.5233923408       -2.0878941856
 H         -6.6991826261        1.0640719797       -0.9177306602
 H         -5.0586774011       -0.5972129124        2.0464953649
 H         -6.4435779675        0.3797754639        1.5604399017
 H         -6.3585666128       -1.3152766703        1.0946711873
 H         -5.9770981812        2.3791564329        0.7129989358
 H         -4.7810099315        4.4434965722        1.2196544181
 H         -2.3054360065        4.4965103547        1.0746210859
 H         -1.0847331399        2.4984435628        0.3820006783
 H         -0.7972184017        1.4045687572       -2.2001693507
 H          1.6423662249        1.6067502601       -2.4937855975
 H          2.7564332130       -1.9099432099        3.0166466517
 H          0.3426200144       -2.1625585235        3.4213162779
 H         -1.3349837422       -1.2191498030        1.9218981675
 H         -0.9152543299       -1.9874597856       -1.1848445860
 H         -1.9516183660       -4.1458069392       -1.6597124343
 H         -4.3975843427       -4.4336183219       -1.3649614825
 H         -5.7585374234       -2.5434656559       -0.6410199225
