  51
 
 C          5.9060943363        0.0000492579        0.0146499135
 C          5.2089679502       -0.0000038177       -1.1825267540
 C          3.8247551923       -0.0000220053       -1.1801274732
 C          3.1370959816        0.0000180176        0.0270504554
 N          1.7096272826        0.0000053993        0.0327560776
 C          1.0382169124        1.2095972419        0.0336623157
 C          1.7503944603        2.4128692953        0.0120743551
 C          1.0931520287        3.6260454525        0.0047932959
 C         -0.2908327562        3.6714047498        0.0152952283
 C         -1.0029515778        2.4860067895        0.0359625824
 C         -0.3587106306        1.2579342653        0.0457107781
 C         -1.1944541609       -0.0000252142        0.0868137556
 C         -2.2397768811        0.0000167390       -1.0135827668
 C         -2.0392934924        0.0001095628       -2.3774490025
 C         -3.1497462940        0.0001629129       -3.2113455058
 C         -4.4367583168        0.0001155644       -2.6906505215
 C         -4.6486133837        0.0000182727       -1.3217996474
 C         -3.5414154627       -0.0000247324       -0.4873225916
 C         -3.4394389287       -0.0000907859        0.9586551475
 N         -4.4041428215       -0.0001313466        1.8656494038
 C         -3.9897296574       -0.0001611103        3.1306497701
 C         -2.6472936805       -0.0001507836        3.4789328198
 N         -1.6710284891       -0.0001159445        2.5684510633
 C         -2.0737945891       -0.0000857420        1.3168928701
 C         -0.3586866417       -1.2579651766        0.0456060897
 C         -1.0029014299       -2.4860507907        0.0357603940
 C         -0.2907578475       -3.6714328298        0.0150258169
 C          1.0932263471       -3.6260448037        0.0045646883
 C          1.7504428273       -2.4128551219        0.0119299127
 C          1.0382399226       -1.2095991826        0.0335738520
 C          3.8347814590        0.0000718000        1.2280939976
 C          5.2191218889        0.0000863012        1.2177749232
 H          6.9858776019        0.0000454347        0.0099537357
 H          5.7429714318       -0.0000545377       -2.1210895143
 H          3.2709005748       -0.0000716253       -2.1074798965
 H          2.8290477558        2.3904845241        0.0034292513
 H          1.6666964533        4.5409595620       -0.0092998029
 H         -0.8115093016        4.6166981158        0.0094216018
 H         -2.0844820290        2.5089584145        0.0444008335
 H         -1.0400951715        0.0001566597       -2.7871223646
 H         -3.0091005893        0.0002403237       -4.2820633803
 H         -5.2825476513        0.0001465847       -3.3620438781
 H         -5.6434682185       -0.0000220141       -0.9036464997
 H         -4.7688411938       -0.0001967980        3.8806558499
 H         -2.3278651810       -0.0001765825        4.5117023758
 H         -2.0844314359       -2.5090266513        0.0441973111
 H         -0.8114142918       -4.6167370535        0.0090809006
 H          1.6667903428       -4.5409457748       -0.0095897914
 H          2.8290958133       -2.3904475898        0.0033038265
 H          3.2871609276        0.0001107709        2.1591167653
 H          5.7614236147        0.0001290028        2.1515484325
