38

O     -3.249030    2.385992   -0.000071
C     -4.155413    1.356081   -0.000038
C     -5.499713    1.727023   -0.000032
C     -6.487884    0.746548    0.000008
C     -6.118345   -0.595900    0.000042
Br    -7.457550   -1.932475    0.000110
C     -4.770459   -0.971734    0.000035
C     -3.760974    0.003593   -0.000007
C     -2.333837   -0.350454   -0.000013
N     -1.340008    0.524445   -0.000020
C     -0.170409   -0.210735   -0.000015
C     -0.457911   -1.566537   -0.000015
C      0.521546   -2.553483   -0.000015
C      1.856057   -2.116350   -0.000015
C      2.233461   -0.747417   -0.000010
C      3.591701   -0.269376   -0.000005
C      4.730350   -1.113878   -0.000024
C      6.033917   -0.608321   -0.000012
C      6.244400    0.761917    0.000023
C      5.151772    1.624854    0.000037
C      3.836263    1.131545    0.000020
C      2.767101    2.034915    0.000029
C      1.452143    1.584184    0.000012
C      1.184040    0.208762   -0.000006
N     -1.827639   -1.629892   -0.000012
H     -2.351417    1.982391   -0.000082
H     -5.769651    2.779772   -0.000056
H     -7.534251    1.039551    0.000015
H     -4.529406   -2.029572    0.000068
H      0.279259   -3.610806   -0.000013
H      2.618111   -2.892491   -0.000015
H      4.622511   -2.194543   -0.000050
H      6.880436   -1.289996   -0.000029
H      7.254858    1.161288    0.000036
H      5.336886    2.697353    0.000061
H      2.948304    3.107839    0.000048
H      0.638716    2.306655    0.000018
H     -2.367937   -2.480749   -0.000007
