  64
 
 C         -0.0623423727       -1.9743906409        0.7381699051
 C         -1.0303040372       -0.8759720160        0.2441644052
 C         -1.3702908508       -1.2058105039       -1.2132385489
 C         -3.5980999288       -0.5366447612        0.9646277141
 C         -4.4600829912       -1.5542712414        1.6306029739
 C         -5.7845356033       -1.6183356849        0.9670142651
 C         -6.0408815066       -0.9984599529       -0.1818171508
 C         -5.0999884472       -0.1137495849       -0.9685213148
 C         -3.0863920770        1.3685552972       -0.1968405482
 N         -2.6544260288        2.0285278682       -1.3398422734
 C         -1.3164131923        2.0487192620       -1.6887674806
 C         -1.0559458009        2.7835272578       -2.8570432386
 C          0.2160235489        3.0247164337       -3.3134229381
 C          1.2763640811        2.5475323072       -2.5712880613
 C          1.0478141781        1.7708497521       -1.4404368633
 C          2.2967203483        1.3299951381       -0.7645495702
 O          3.3148215568        1.9776271176       -0.7370923021
 C          4.0724513073       -0.1571112490        1.5282358579
 C          5.4058346287       -0.6724200411        1.7647087758
 C          6.2892300849       -1.0449131866        0.8118789263
 C          6.0005718283       -1.0823089550       -0.5889533321
 C          4.7951826243       -1.4103230318       -1.0720068621
 C          3.7359526607       -1.9163311259       -0.1496543149
 C         -0.2473613483        1.4303654643       -0.9915053064
 C          3.6994975310        0.9022283151        2.4469757064
 C          3.2958644638       -0.6516377371        0.5254976377
 C          2.0872494433        0.0024354222       -0.0626503597
 C          1.0304235037        0.5036535614        0.8764090774
 C          1.2592788596        1.1666206137        2.0219773383
 C          2.4941844637        1.4342863457        2.6996718935
 S         -0.2090907978        1.8944137802        2.7018967620
 C         -1.1336642339        1.4462028457        1.2806735090
 C         -2.3920806033        1.7807699929        1.0436431407
 C         -3.9601130861        0.3481731953       -0.1086828956
 C         -3.3072794299       -2.0252372122        0.7870347872
 C         -2.2255266306       -1.0729869837        1.2151502166
 C         -0.3646755481        0.5883000683        0.3136038860
 H          0.4355500193       -1.6903010406        1.6617233828
 H         -0.6400576354       -2.8766538998        0.9316922519
 H          0.6899877790       -2.2305618056        0.0012977946
 H         -2.2280689017       -0.6482618445       -1.5717955916
 H         -0.5228854438       -0.9625903111       -1.8525614528
 H         -1.5729460638       -2.2685339469       -1.3235439402
 H         -4.4313849148       -1.7014589994        2.7054752685
 H         -6.5559044345       -2.2030670826        1.4478775818
 H         -7.0198745680       -1.1081637517       -0.6303954232
 H         -5.6587300384        0.7465548780       -1.3505165005
 H         -3.3097038282        2.1621796965       -2.0965435098
 H         -1.9037875631        3.1937544082       -3.3886007784
 H          0.3786211399        3.6005894682       -4.2111689025
 H          2.2978206769        2.7601716143       -2.8445638420
 H          5.7739539567       -0.5745355769        2.7787379127
 H          7.3176997343       -1.2152320367        1.1042864132
 H          6.8024144717       -0.8151245184       -1.2632181857
 H          4.5630770221       -1.3153062352       -2.1224704773
 H          2.9283423687       -2.4073322313       -0.6901996944
 H          4.5162565567        1.2602298017        3.0604174138
 H          4.1646527699       -2.6090815713        0.5789110487
 H          1.6291866980       -0.6672503891       -0.7921488886
 H          2.4145264168        2.1711700535        3.4876786253
 H         -2.9723374718        2.3573392688        1.7481889971
 H         -4.7465446654       -0.6731000716       -1.8477762788
 H         -3.3740244070       -2.6360128236       -0.0879621999
 H         -1.8938142713       -1.1160211829        2.2515585580
