  78
 
 N         -6.8630281220       -3.0418653377       -0.2485345489
 C         -5.5621560644       -2.7173463321        0.0695831136
 C         -4.5227477182       -3.6287612784       -0.1559125593
 C         -3.2210603329       -3.2668756775        0.0875292336
 C         -2.8539551215       -1.9969641913        0.5561838620
 C         -3.9175163899       -1.1037858532        0.7961139337
 C         -5.2421303582       -1.4613624261        0.5608164390
 O         -3.7707304462        0.1629421742        1.2729554664
 C         -2.5578733438        0.6622840134        1.6082871053
 C         -2.5231212033        1.9603900517        2.0936103613
 C         -1.3061879902        2.5287787254        2.4692976250
 N         -1.2524498874        3.8465247985        2.8651518005
 C         -0.1346703444        1.7788382581        2.3746963114
 C         -0.1852969626        0.4883806748        1.8745111746
 C         -1.3909564602       -0.1006313010        1.4669730127
 B         -1.4252869091       -1.4881084931        0.8407622564
 C         -0.0158211685       -2.0754836895        0.5838675138
 C          0.3099094755       -3.2130624458       -0.1685774127
 C          1.6049671306       -3.5773747048       -0.4578400208
 C          2.6757702264       -2.8262860326        0.0415701536
 N          3.9677867480       -3.0913919043       -0.3887762981
 C          5.0432221596       -2.2136269569       -0.3624030197
 C          6.3162885101       -2.6815071325       -0.1373141207
 C          7.3974236873       -1.7947298661       -0.0024525965
 C          7.2027224225       -0.4444991192       -0.0192618606
 C          5.9162870419        0.0882366858       -0.2738346026
 C          5.6435748073        1.4560018287       -0.2392328077
 C          4.3578632785        1.9538791576       -0.4300462397
 C          4.0386737997        3.3143456356       -0.1928064195
 C          2.7500183900        3.7535793820       -0.2698334128
 C          1.6934403393        2.8882291837       -0.6398183732
 C          0.3507116731        3.3323481381       -0.6190470089
 C         -0.7101960175        2.5007741270       -0.9660397625
 C         -2.0496649489        2.9111364062       -0.8993723699
 C         -3.1145263229        2.0600342684       -1.2796648903
 C         -4.4494417206        2.4632144408       -1.2111378181
 C         -5.4748679207        1.6082252885       -1.5973163418
 C         -5.1849787005        0.3378654199       -2.0593110593
 C         -3.8646060114       -0.0920256618       -2.1303531135
 C         -2.8174323794        0.7455804740       -1.7455700380
 C         -1.4659641831        0.3254370426       -1.7898650956
 C         -0.4154148365        1.1670835607       -1.4077719914
 C          0.9121949813        0.7354098751       -1.4245571674
 C          1.9793864632        1.5542404032       -1.0120283025
 C          3.3209394036        1.0640019769       -0.8650731901
 C          3.6318152936       -0.2815283441       -1.0062412451
 C          4.8455344756       -0.8095756511       -0.5685860686
 C          2.3928030914       -1.7778623981        0.9080012237
 C          1.0803940400       -1.3586935205        1.1041079312
 O          0.9844115964       -0.1902395970        1.7982057968
 H         -7.0806783599       -4.0233325594       -0.3063015302
 H         -7.5805111609       -2.4730797352        0.1706104424
 H         -4.7588818298       -4.6185838104       -0.5210327954
 H         -2.4467898070       -4.0002891215       -0.0748169426
 H         -6.0150892458       -0.7345155191        0.7606645554
 H         -3.4405717046        2.5226011849        2.1719476993
 H         -0.4296380731        4.1287671043        3.3718229907
 H         -2.1141328036        4.2546796456        3.1881615337
 H          0.8150741063        2.2009813801        2.6641076112
 H         -0.4904262950       -3.7999714460       -0.5911521211
 H          1.8041857901       -4.4235237597       -1.1009762037
 H          4.1844956973       -4.0551721464       -0.5970400079
 H          6.4853853708       -3.7432392877       -0.0211223683
 H          8.3827245149       -2.2018563760        0.1723871716
 H          8.0208397986        0.2357875415        0.1654753336
 H          6.4449434303        2.1438026242       -0.0057859475
 H          4.8333256729        3.9870151353        0.0977408538
 H          2.5096185082        4.7815929142       -0.0361077820
 H          0.1447950264        4.3435919727       -0.2979811973
 H         -2.2761924204        3.9086088473       -0.5514908251
 H         -4.6804815474        3.4555383886       -0.8502378713
 H         -6.5009375490        1.9412021696       -1.5341953427
 H         -5.9801389499       -0.3294435275       -2.3567791516
 H         -3.6406602734       -1.0908338834       -2.4759025907
 H         -1.2449020076       -0.6778717314       -2.1248195157
 H          1.0956642380       -0.2751555689       -1.7543911504
 H          2.9004172170       -0.9554624772       -1.4151780512
 H          3.1822369497       -1.2080843526        1.3702756046
