  70
 
 C          9.8736960642        0.3121450866       -0.3981974120
 C          9.2655659503        0.9791365605       -1.4727218612
 C          7.9029057772        1.0266796691       -1.5756988035
 C          7.0838989028        0.4054936658       -0.6064822444
 C          5.6808093490        0.4408327813       -0.6845513351
 C          4.8854032038       -0.1832026399        0.2592151136
 C          3.4302694753       -0.1474866607        0.1786608859
 C          2.7443348845        1.1034018655        0.1018893904
 C          3.4257791275        2.3238871149        0.1558194627
 C          2.7632567337        3.5370417437       -0.0093242758
 C          1.4033750654        3.5489858398       -0.2384476256
 C          0.6911161950        2.3524690444       -0.2344916775
 C          1.3206773426        1.1251079680       -0.0048566588
 C          0.5802994496       -0.0950480277        0.0886305560
 C         -0.8740577011       -0.0647984414        0.0566348965
 C         -1.5965342978       -0.8476850636       -0.8544896571
 C         -2.9725397848       -0.8093150510       -0.8950253229
 C         -3.6821055450       -0.0015939480       -0.0055550040
 N         -5.0808438023        0.0319008501       -0.0386473288
 C         -5.9166349526       -1.0681151854       -0.0570452546
 C         -5.6036126440       -2.4190541315        0.0075421556
 C         -6.6469770451       -3.3255160237       -0.0010223046
 C         -7.9744600615       -2.9064641963       -0.0611478892
 C         -8.2936873909       -1.5629896276       -0.0986933674
 C         -7.2621502765       -0.6334339710       -0.0923817034
 C         -7.2267458467        0.8031132360       -0.1019118076
 C         -8.2104424292        1.7819359046       -0.1518660890
 C         -7.8243457673        3.1080903318       -0.1728376148
 C         -6.4766457909        3.4616367059       -0.1618250658
 C         -5.4798727945        2.5053383006       -0.1128263630
 C         -5.8616474430        1.1715082334       -0.0646794833
 C         -2.9771699571        0.7736762273        0.9159258044
 C         -1.6004341711        0.7498455897        0.9363996865
 C          1.2664052620       -1.3430922018        0.2117751481
 C          0.5825002364       -2.5496839141        0.3924374175
 C          1.2521195988       -3.7702470083        0.4213681582
 C          2.6218217657       -3.8049478462        0.2640747823
 C          3.3348232248       -2.6139208472        0.1550573998
 C          2.6932638885       -1.3714000773        0.1899472178
 C          5.5179705942       -0.8654978276        1.3295824534
 C          6.8755355718       -0.8976133046        1.4405982881
 C          7.7023173124       -0.2731082641        0.4782128221
 C          9.1069869736       -0.3002596133        0.5575355846
 H         10.9518528818        0.2853089544       -0.3320576614
 H          9.8851469878        1.4553790530       -2.2192501382
 H          7.4300804881        1.5414400137       -2.4005103035
 H          5.2203541690        0.9387261910       -1.5268229609
 H          4.4903457496        2.3291896338        0.3330884881
 H          3.3230641005        4.4600066539        0.0287733039
 H          0.8824649564        4.4797821925       -0.4087026501
 H         -0.3717604069        2.3774005293       -0.4197212741
 H         -1.0580794311       -1.4535164930       -1.5685211546
 H         -3.5097580294       -1.3860319024       -1.6333047088
 H         -4.5799802193       -2.7550605739        0.0733037467
 H         -6.4281829477       -4.3825288732        0.0438008097
 H         -8.7621268809       -3.6455980683       -0.0685707222
 H         -9.3230420377       -1.2380589184       -0.1277379384
 H         -9.2545159798        1.5076732003       -0.1780217560
 H         -8.5740077422        3.8849599077       -0.2084468706
 H         -6.2044039143        4.5065867916       -0.1958971874
 H         -4.4390041372        2.7909066849       -0.1238703885
 H         -3.5204669557        1.3749168921        1.6298596007
 H         -1.0669288458        1.3325352689        1.6730746033
 H         -0.4891095970       -2.5392828896        0.5191299435
 H          0.6906414374       -4.6837274194        0.5520180936
 H          3.1497585767       -4.7470144256        0.2421782701
 H          4.4071622036       -2.6540554481        0.0390370855
 H          4.8973009492       -1.3301485871        2.0827274616
 H          7.3427788653       -1.4010567646        2.2757447091
 H          9.5716932465       -0.8163709585        1.3862344025
