  124
 
 C          7.8426347386        3.1314222285        0.2508721218
 C          6.4733038134        3.6123871273       -0.2483658443
 C          6.6460855984        4.1623031675       -1.6664884583
 C          5.9573837578        4.7509995317        0.6441050276
 C          5.4774147264        2.4668465771       -0.1829498092
 C          5.2135595449        1.8546123669        1.0415462148
 C          4.2660705665        0.8586787892        1.1656720581
 C          3.5460674185        0.4447434391        0.0513948021
 N          2.4763727991       -0.4839673367        0.1606454697
 C          2.7379839048       -1.8328598819        0.3042828814
 C          4.0625047430       -2.2523739877        0.4412934958
 C          4.3661299229       -3.5811281472        0.6711233209
 C          3.3518603948       -4.5354018891        0.7950647050
 C          3.7236100427       -5.9745526422        1.1096953195
 C          2.5074219135       -6.9007517812        1.1909829621
 C          4.4476315187       -6.0137548789        2.4634469475
 C          4.6527481939       -6.5079143982        0.0094635732
 C          2.0450033244       -4.1137015009        0.6085782833
 C          1.6835642269       -2.7913266315        0.3044300145
 B          0.2560646625       -2.3082841169       -0.0083067367
 C         -1.0326181923       -3.0880549909       -0.3244255452
 C         -1.0988490307       -4.4563412103       -0.6331463827
 C         -2.2830685981       -5.1498687994       -0.8257159856
 C         -2.3339674324       -6.6345423168       -1.1443770934
 C         -3.1326991780       -7.3584586927       -0.0506272164
 C         -3.0245468988       -6.8255436311       -2.5026719016
 C         -0.9462512121       -7.2766131078       -1.2189397156
 C         -3.4800318498       -4.4375055010       -0.7049484531
 C         -3.4714841260       -3.0754441163       -0.4698238917
 C         -2.2694344267       -2.3805161883       -0.3242668529
 N         -2.3066637149       -1.0078855825       -0.1728123314
 C         -3.5532295888       -0.3339039670       -0.0666480354
 C         -3.9613128927        0.1472942317        1.1697808551
 C         -5.1082794446        0.9105202461        1.2793525044
 C         -5.8763970858        1.2224081240        0.1635222674
 C         -7.0951648987        2.1273204392        0.2277173472
 C         -7.3986944146        2.6063952696        1.6495693197
 C         -6.8237685133        3.3629744873       -0.6432781866
 C         -8.3238033716        1.3723952497       -0.2977676851
 C         -5.4740560842        0.6976382116       -1.0638524807
 C         -4.3332155009       -0.0696379436       -1.1859321582
 C         -1.1796478020       -0.2016936614       -0.1057497737
 C         -1.3262181736        1.1823301144       -0.1683032332
 C         -0.2190247023        2.0179768488        0.0115841435
 N         -0.3727203094        3.4078035523        0.0217798683
 C          0.6492935847        4.2225660036       -0.4718612105
 C          0.9544964193        5.4326169771        0.1552063450
 C          1.9884431519        6.2186709952       -0.3116295281
 C          2.7399143307        5.8173162040       -1.4054775455
 C          2.4373549632        4.6206826408       -2.0364562221
 C          1.4034322765        3.8296095399       -1.5801463471
 C         -1.5474945787        3.9719300764        0.5254841208
 C         -2.1964010056        3.4066904506        1.6259448359
 C         -3.3781700689        3.9450457726        2.0913456616
 C         -3.9358293769        5.0559373800        1.4777096749
 C         -3.2911917555        5.6288124360        0.3920807368
 C         -2.1106876768        5.0953038251       -0.0839816508
 C          1.0435624110        1.4409817090        0.1814862573
 C          1.2007210284        0.0588545118        0.1030304032
 C          0.0909905140       -0.8042890524       -0.0041148800
 C          3.8243309870        1.0164480824       -1.1827203451
 C          4.7788988146        2.0094547070       -1.2944443176
 H          7.7936314538        2.7891528475        1.2807231862
 H          8.1997884114        2.3089598438       -0.3655476593
 H          8.5659598897        3.9422010065        0.1970123349
 H          5.7058410731        4.5529485471       -2.0476873042
 H          7.0182676936        3.3958042875       -2.3424978180
 H          7.3678985145        4.9764894969       -1.6531365337
 H          6.6289931262        5.6049850899        0.5876843549
 H          4.9677845815        5.0641711866        0.3159869036
 H          5.8889119727        4.4402372916        1.6829754913
 H          5.7421394613        2.1698004035        1.9282571922
 H          4.0603752969        0.4123527941        2.1276201663
 H          4.8675887503       -1.5355478929        0.3752307027
 H          5.4036596724       -3.8602227138        0.7705930346
 H          2.8352618221       -7.9108483255        1.4304364423
 H          1.9827297670       -6.9350832952        0.2391884372
 H          1.8189065826       -6.5773785300        1.9682734464
 H          3.7974262764       -5.6297989272        3.2470115932
 H          5.3514829465       -5.4109455034        2.4455173873
 H          4.7236222880       -7.0365453978        2.7129443167
 H          4.9130040963       -7.5456861541        0.2089252906
 H          5.5722021715       -5.9321478014       -0.0480080309
 H          4.1567150463       -6.4555029933       -0.9576384775
 H          1.2411386080       -4.8206836247        0.7089761160
 H         -0.1608975692       -4.9725689183       -0.7323411829
 H         -4.1551197264       -6.9949628966        0.0015159003
 H         -2.6655389080       -7.2024303056        0.9196810435
 H         -3.1615547914       -8.4274846586       -0.2527293903
 H         -2.4676827904       -6.3087191842       -3.2817447410
 H         -3.0723469124       -7.8831783706       -2.7549641069
 H         -4.0370815486       -6.4315039135       -2.4897254332
 H         -0.4317932918       -7.1982753598       -0.2641556290
 H         -0.3393552749       -6.8113767657       -1.9922677370
 H         -1.0472679219       -8.3333084478       -1.4604060877
 H         -4.4323549279       -4.9336240848       -0.8107854600
 H         -4.4125713378       -2.5493897778       -0.4061042174
 H         -3.3623104218       -0.0674062173        2.0425510557
 H         -5.3870188065        1.2695447840        2.2556139351
 H         -8.2779839626        3.2472748155        1.6351819414
 H         -7.6060240708        1.7680267725        2.3107687264
 H         -6.5686225717        3.1835862122        2.0493395252
 H         -7.6633771933        4.0525062847       -0.5873819049
 H         -6.6770521927        3.0893590914       -1.6844989728
 H         -5.9285023716        3.8758386638       -0.2961213713
 H         -9.2044993042        2.0087720791       -0.2443390020
 H         -8.5038286640        0.4831043776        0.3028333858
 H         -8.1906839274        1.0646009223       -1.3310508731
 H         -6.0483618231        0.9038956638       -1.9541385896
 H         -4.0258474466       -0.4484474216       -2.1497149188
 H         -2.2916198155        1.6330486593       -0.3356394770
 H          0.3775085175        5.7434886043        1.0139992493
 H          2.2170886899        7.1490351174        0.1877909869
 H          3.5485417575        6.4357594546       -1.7655954381
 H          3.0044272742        4.3062111148       -2.9005189459
 H          1.1652786123        2.9025445738       -2.0801273310
 H         -1.7606449440        2.5467931325        2.1126168303
 H         -3.8621360087        3.5007532798        2.9489398349
 H         -4.8599909147        5.4767686951        1.8449471412
 H         -3.7182904397        6.4941572868       -0.0937705274
 H         -1.6165299540        5.5379952827       -0.9365724943
 H          1.8885714245        2.0883248084        0.3550738718
 H          3.2738411709        0.6873347688       -2.0518015097
 H          4.9608865291        2.4304201167       -2.2687944602
