66

O     -1.594262    1.672806   -3.929713
S     -0.481025    2.189338   -3.154923
O      0.788012    2.478836   -3.795115
C     -1.009418    3.670613   -2.366674
C     -2.342810    4.072340   -2.383492
C     -2.692581    5.247467   -1.725027
C     -1.694177    5.965722   -1.082747
N     -0.393263    5.594055   -1.062109
C     -0.071898    4.455380   -1.719613
C     -0.181542    1.022649   -1.851829
C      1.127425    0.718955   -1.474040
C      1.353877   -0.186354   -0.429521
N      2.686321   -0.487213   -0.015448
C      3.425045    0.411991    0.823210
C      2.888423    1.615191    1.315755
C      3.646489    2.464643    2.128841
C      4.952208    2.124577    2.470422
C      5.499205    0.932524    2.003184
C      4.740585    0.084371    1.190014
O      5.366104   -1.074139    0.791022
C      4.655323   -1.943942   -0.003482
C      5.331843   -3.108316   -0.381297
C      4.703813   -4.046923   -1.195466
C      3.402565   -3.818636   -1.633562
C      2.726890   -2.653370   -1.255135
C      3.339070   -1.696174   -0.426782
C      0.260240   -0.786798    0.212603
C     -1.054001   -0.491630   -0.179094
N     -2.160333   -1.106115    0.481355
C     -2.876930   -2.192909   -0.121389
C     -2.529717   -2.741080   -1.368967
C     -3.257255   -3.801889   -1.919412
C     -4.341307   -4.338804   -1.231198
C     -4.696307   -3.817854    0.010064
C     -3.968507   -2.757116    0.559100
O     -4.391116   -2.322276    1.793966
C     -3.699717   -1.286482    2.378445
C     -4.166066   -0.880446    3.633045
C     -3.542708    0.168627    4.303138
C     -2.457037    0.812502    3.716825
C     -1.991710    0.405689    2.461573
C     -2.600732   -0.657231    1.770816
C     -1.271589    0.417873   -1.221225
H     -3.102038    3.488558   -2.898089
H     -3.719274    5.597969   -1.713050
H     -1.920130    6.888632   -0.554988
H      0.984459    4.199423   -1.700761
H      1.977872    1.175111   -1.977720
H      1.870693    1.912619    1.082383
H      3.213165    3.392047    2.495879
H      5.541595    2.783987    3.102178
H      6.516017    0.658843    2.271538
H      6.349558   -3.278328   -0.040647
H      5.229133   -4.951545   -1.490191
H      2.909141   -4.546193   -2.273446
H      1.715500   -2.510577   -1.624304
H      0.434318   -1.491173    1.024046
H     -1.685906   -2.357784   -1.935308
H     -2.972856   -4.207882   -2.887272
H     -4.906069   -5.163265   -1.658444
H     -5.537996   -4.236831    0.554822
H     -5.016782   -1.384385    4.083778
H     -3.903963    0.483746    5.278564
H     -1.967955    1.633914    4.234959
H     -1.145068    0.938066    2.038498
H     -2.290846    0.644600   -1.528545
