  86
 
 C        -12.1074582061        0.0010688232       -0.0001644300
 C        -11.4113123546        0.6174125472        1.0266531144
 C        -10.0285060548        0.6200388854        1.0260305204
 C         -9.3179294520        0.0006248666        0.0000242629
 C         -7.8464479957        0.0003295336        0.0001794538
 C         -7.1337264380        1.1484637483        0.3398759930
 C         -5.7521810998        1.1490236784        0.3384598245
 C         -5.0450619008       -0.0001194880        0.0001706199
 C         -3.5638467434       -0.0002939423        0.0000936863
 C         -2.8675190842        0.2005457239       -1.1989854460
 C         -3.5437910158        0.4184596189       -2.4286085753
 C         -2.8551850856        0.6138078802       -3.5860915427
 C         -1.4449088116        0.6029936569       -3.5871859707
 C         -0.7586978681        0.4016827041       -2.4295434444
 C         -1.4379584497        0.1977386043       -1.1995789053
 C         -0.7415097308       -0.0004190426       -0.0000659829
 C          0.7415105643       -0.0003842955       -0.0001252776
 C          1.4379440960       -1.1999063914       -0.1982774704
 C          0.7586710030       -2.4298597095       -0.4022436023
 C          1.4448716609       -3.5875163036       -0.6035137903
 C          2.8551488984       -3.5864510104       -0.6142557734
 C          3.5437667038       -2.4289780612       -0.4188947135
 C          2.8675059076       -1.1993400033       -0.2010287368
 C          3.5638473917       -0.0002779341       -0.0001475062
 C          5.0450625040       -0.0002163213       -0.0001207694
 C          5.7523452806       -0.3384155915        1.1489471418
 C          7.1338899334       -0.3396892400        1.1482247074
 C          7.8464471598        0.0000522732       -0.0000001635
 C          9.3179288385        0.0003038655        0.0001406385
 C         10.0284133659        1.0264689570       -0.6191176645
 C         11.4112187953        1.0273750896       -0.6162276597
 C         12.1074567875        0.0006760795        0.0002109116
 C         11.4114602224       -1.0261870084        0.6166476599
 C         10.0286529861       -1.0256612817        0.6194580026
 C          7.1339324939        0.3396220229       -1.1482994609
 C          5.7523848551        0.3380733357       -1.1491376970
 C          2.8674190457        1.1987338400        0.2007465366
 C          3.5435869131        2.4284192379        0.4186350452
 C          2.8548834491        3.5858346421        0.6140366468
 C          1.4446066644        3.5867938497        0.6033037297
 C          0.7584936900        2.4290904120        0.4020049396
 C          1.4378581619        1.1991923374        0.1980101838
 C         -1.4378425017       -0.1985516155        1.1995194786
 C         -0.7584655047       -0.4025684001        2.4294069056
 C         -1.4445678675       -0.6038290120        3.5871235775
 C         -2.8548454414       -0.6144969803        3.5861918093
 C         -3.5435610673       -0.4190768022        2.4287869073
 C         -2.8674045461       -0.2012317296        1.1990878111
 C         -5.7525490034       -1.1490507832       -0.3380622275
 C         -7.1340959165       -1.1480503691       -0.3394668623
 C        -10.0285627659       -0.6185443488       -1.0260949214
 C        -11.4113690879       -0.6154738109       -1.0269022040
 H        -13.1878067862        0.0012383542       -0.0002352780
 H        -11.9489228777        1.0967579034        1.8324528109
 H         -9.4912309497        1.0892259936        1.8378728957
 H         -7.6683498165        2.0541434039        0.5879823478
 H         -5.2098597527        2.0476743196        0.5974464159
 H         -4.6241382601        0.4278588971       -2.4254185741
 H         -3.3832015094        0.7792311321       -4.5141850944
 H         -0.9155714111        0.7577634258       -4.5163069022
 H          0.3216624418        0.3946108428       -2.4260039451
 H         -0.3216899966       -2.4263015069       -0.3952257985
 H          0.9155243093       -4.5166277197       -0.7583012277
 H          3.3831557224       -4.5145589023       -0.7796341268
 H          4.6241146469       -2.4258043850       -0.4282314256
 H          5.2101525336       -0.5974290040        2.0476677760
 H          7.6686448182       -0.5877474133        2.0538402423
 H          9.4910625380        1.8381932143       -1.0884210041
 H         11.9487567855        1.8332762899       -1.0954814707
 H         13.1878054757        0.0008159123        0.0002347355
 H         11.9491904684       -1.8319516915        1.0959182298
 H          9.4914948136       -1.8375350988        1.0887251525
 H          7.6687176738        0.5877917557       -2.0538658428
 H          5.2102225647        0.5969980976       -2.0479019556
 H          4.6239347941        2.4253278931        0.4279753138
 H          3.3828206201        4.5139745550        0.7794576866
 H          0.9151884333        4.5158626549        0.7581047342
 H         -0.3218667444        2.4254569348        0.3949846343
 H          0.3218953584       -0.3956021667        2.4257522070
 H         -0.9151401804       -0.7586534355        4.5161829543
 H         -3.3827736016       -0.7798745156        4.5143446913
 H         -4.6239097240       -0.4283580201        2.4257136075
 H         -5.2105171399       -2.0478794702       -0.5970363142
 H         -7.6690103627       -2.0535487765       -0.5876062713
 H         -9.4913305590       -1.0879212418       -1.8378552400
 H        -11.9490267053       -1.0946459694       -1.8327722740
