  119
 
 C          0.1705971462       -7.7469247534        0.7047964620
 C         -1.0384446854       -7.0747802997        0.6104331241
 C         -1.0600265080       -5.6963853388        0.5286112491
 C          0.1353671999       -4.9788918037        0.5415253775
 C          0.1153057206       -3.5209827666        0.4505334756
 N         -1.0694483847       -2.9167175001        0.3918459620
 C         -1.0426390887       -1.5943819922        0.2776913760
 C         -2.3176638850       -0.8869943422        0.1464278662
 C         -3.5052847175       -1.5401708454        0.4510305956
 C         -4.7192575098       -0.8804242910        0.2945180425
 N         -5.9142511098       -1.5537321177        0.5636194315
 C         -6.2273592504       -2.8300455799        0.1286368772
 C         -5.5044086583       -3.6930457878       -0.6825359160
 C         -6.0691458421       -4.9167840949       -0.9882127165
 C         -7.3275324830       -5.2777727966       -0.5126290118
 C         -8.0636642786       -4.4120802120        0.2709965313
 C         -7.5160039438       -3.1772552551        0.5927785563
 C         -7.9958153042       -2.0545393198        1.3493764453
 C         -9.1670674300       -1.8118079109        2.0543233988
 C         -9.3064765954       -0.6055488394        2.7111190141
 C         -8.2878125674        0.3436427668        2.6858504689
 C         -7.1136550997        0.1227129539        1.9918133288
 C         -6.9785664716       -1.0744091333        1.3049303290
 C         -4.7378264732        0.4350535927       -0.1625657560
 C         -3.5443558654        1.0921396088       -0.4489395731
 N         -3.5632897840        2.4062502200       -0.9316512383
 C         -2.9287839293        2.8453224246       -2.0781932346
 C         -2.1893902797        2.1289796900       -3.0083195095
 C         -1.6921957897        2.8130616429       -4.1018769399
 C         -1.9256441203        4.1760319486       -4.2756876218
 C         -2.6774535112        4.8892232536       -3.3630927816
 C         -3.1895772142        4.2230368557       -2.2572950799
 C         -4.0158408652        4.6294287264       -1.1550948157
 C         -4.5747101017        5.8426920013       -0.7762534204
 C         -5.3257663446        5.8927821104        0.3810846752
 C         -5.5076551805        4.7570507126        1.1666938691
 C         -4.9589775506        3.5401315167        0.8107887773
 C         -4.2266774874        3.4767751440       -0.3648778413
 C         -2.3316661581        0.4329202355       -0.2906380052
 N          0.0696429456       -0.8700047746        0.2520004223
 C          1.2075213539       -1.5529279471        0.3385931654
 C          2.4481922573       -0.7770939841        0.3076411138
 C          2.3826219744        0.6015016262        0.4689024812
 C          3.5374927985        1.3706354906        0.3823146311
 N          3.4465916948        2.7602452453        0.4945460432
 C          4.2538971458        3.5828830055        1.2598831295
 C          5.3161698605        3.2629868892        2.0917753263
 C          5.9435774743        4.2904180273        2.7702793479
 C          5.5224948917        5.6110863211        2.6397165026
 C          4.4457261443        5.9339375592        1.8383589336
 C          3.8012964527        4.9171980435        1.1468656477
 C          2.6629851919        4.8920723730        0.2713158876
 C          1.8127680008        5.8789017149       -0.2108464118
 C          0.7965868031        5.5132849139       -1.0701976338
 C          0.6404036518        4.1881900553       -1.4687553424
 C          1.4757399796        3.1906722114       -1.0033196482
 C          2.4756061637        3.5444434679       -0.1081809092
 C          4.7615176521        0.7476770163        0.1509024093
 C          4.8293142423       -0.6383078417        0.0279516818
 N          6.0614497050       -1.2590680523       -0.2087196288
 C          7.2269117897       -1.0553142277        0.5046950620
 C          7.4478013028       -0.2843694888        1.6358975816
 C          8.7192986180       -0.2753612820        2.1760867191
 C          9.7510903376       -1.0247830914        1.6159369427
 C          9.5302743329       -1.8199735017        0.5091723760
 C          8.2600576183       -1.8433396108       -0.0512411084
 C          7.6806865283       -2.5552615177       -1.1560027771
 C          8.1898310548       -3.4564926313       -2.0816784416
 C          7.3451482723       -3.9541832865       -3.0534314420
 C          6.0130459468       -3.5521015377       -3.1180034427
 C          5.4840327408       -2.6557872576       -2.2089360757
 C          6.3219252173       -2.1707847779       -1.2153549024
 C          3.6719416473       -1.4042435051        0.1060263230
 N          1.2798535287       -2.8752813227        0.4213301183
 C          1.3483630669       -5.6590203230        0.6365332805
 C          1.3618898865       -7.0377021125        0.7175127395
 H          0.1844585220       -8.8251378249        0.7685148116
 H         -1.9651661431       -7.6294250054        0.6007886844
 H         -1.9915012648       -5.1575707793        0.4524600412
 H         -3.4698849460       -2.5509972341        0.8230979002
 H         -4.5370953242       -3.4193403971       -1.0753647451
 H         -5.5228039218       -5.6070487699       -1.6140646081
 H         -7.7328000067       -6.2445479958       -0.7716530763
 H         -9.0467351735       -4.6825460726        0.6255384762
 H         -9.9476792396       -2.5566085884        2.0890649464
 H        -10.2107296222       -0.3951281164        3.2623441056
 H         -8.4156719316        1.2714135091        3.2236534954
 H         -6.3232047356        0.8566260885        2.0012541277
 H         -5.6794614166        0.9359644120       -0.3293519944
 H         -2.0136467192        1.0704036476       -2.8899218566
 H         -1.1094719772        2.2794333790       -4.8381773447
 H         -1.5150784093        4.6751039129       -5.1406616246
 H         -2.8704130316        5.9417977098       -3.5049020763
 H         -4.4195845861        6.7268839503       -1.3758502991
 H         -5.7724270260        6.8255634159        0.6913716497
 H         -6.0863023068        4.8299544485        2.0756826937
 H         -5.0841097854        2.6713427458        1.4386468295
 H         -1.4003766115        0.9343715718       -0.4995286376
 H          1.4293221666        1.0600842009        0.6737179783
 H          5.6397781439        2.2428889808        2.2238208556
 H          6.7763212181        4.0619709354        3.4188950056
 H          6.0404919194        6.3871262061        3.1830923382
 H          4.1041871469        6.9542605750        1.7512314576
 H          1.9509624682        6.9086389351        0.0823030672
 H          0.1163837198        6.2595801034       -1.4522397226
 H         -0.1474977853        3.9361135339       -2.1608435260
 H          1.3546224280        2.1729659860       -1.3418245251
 H          5.6565802226        1.3390854098        0.0320256387
 H          6.6479377155        0.2762166312        2.0946225294
 H          8.9155857763        0.3213792488        3.0546030560
 H         10.7324522746       -0.9897050994        2.0648959613
 H         10.3243252544       -2.4175249219        0.0875469632
 H          9.2263201645       -3.7553242058       -2.0400209814
 H          7.7197294151       -4.6584477305       -3.7812347871
 H          5.3793295462       -3.9472529667       -3.8982414113
 H          4.4545614352       -2.3389448473       -2.2796783108
 H          3.7103726283       -2.4775629539        0.0154930710
 H          2.2650005735       -5.0904901753        0.6467441161
 H          2.3022373534       -7.5638551635        0.7910188536
