  99
 
 C         -8.0188940049        0.1105628031        1.5922564405
 C         -6.5810023613        0.2480947790        1.1941204002
 C         -5.7274376450        1.0844301441        1.9027765664
 C         -4.3913761884        1.2168237199        1.5671973422
 C         -3.5465293365        2.1634638768        2.3695198472
 C         -3.8507746840        0.5116294767        0.4709040009
 B         -2.3436230629        0.7270396875        0.0815739302
 C         -2.0210816326        1.2009414203       -1.3952150723
 C         -3.0195899407        1.9105874415       -2.0749110447
 C         -2.8338185643        2.4636361302       -3.3271574465
 C         -1.6074890614        2.2962080609       -3.9556955737
 C         -1.3385481934        2.8672116319       -5.3131269460
 F         -0.3410612718        3.7808921968       -5.3008272312
 F         -2.3951778428        3.4863783684       -5.8629662821
 F         -0.9513270128        1.9309221194       -6.2067404831
 C         -0.5918520604        1.5916484700       -3.3282903146
 C         -0.7833431403        1.0554310945       -2.0567809817
 N          0.3188099593        0.4160657550       -1.4745175424
 C          0.4096344396       -0.8856434660       -1.0211234482
 C         -0.5049862346       -1.9214538813       -1.0944252250
 C         -0.1302374499       -3.1568627150       -0.6068696650
 C          1.1317146880       -3.4050090573       -0.0519699887
 C          1.4442434015       -4.8013284027        0.4694662640
 C          1.3154265630       -5.8127548737       -0.6795370566
 C          2.8605898051       -4.9134293719        1.0421875747
 C          0.4505402566       -5.1550145563        1.5856319236
 C          2.0524653342       -2.3707429921       -0.0211140020
 C          1.7033265573       -1.1202972633       -0.5133644213
 C          2.4387485562        0.1010563568       -0.6899289084
 C          3.7460391135        0.4701521949       -0.4001809978
 C          4.1915335391        1.7424956836       -0.7199974012
 C          5.6148494638        2.2110216785       -0.4469660908
 C          6.2698727388        2.6326103688       -1.7711170823
 C          6.4859372555        1.1185456071        0.1812224474
 C          5.5778286478        3.4061799296        0.5172274659
 C          3.2913633582        2.6309835060       -1.3237044011
 C          1.9868646239        2.2910513717       -1.6215170727
 C          1.5575374697        1.0108048384       -1.3080327790
 C         -1.1834248475        0.5739673208        1.1219733586
 C         -1.0499677022       -0.6205040012        1.8553930825
 C         -2.1076186217       -1.6845060465        1.8095165268
 C          0.0598546545       -0.8291645479        2.6572929621
 C          1.0536732672        0.1281794955        2.7928179027
 C          2.2552478726       -0.1064448013        3.6564983399
 C          0.8832071829        1.3360315283        2.1352593468
 C         -0.2120579706        1.5701554974        1.3186155779
 C         -0.3659556655        2.9527005740        0.7515018106
 C         -4.7210820201       -0.3245819363       -0.2482843396
 C         -4.2555676585       -1.1680878153       -1.4007120308
 C         -6.0546060912       -0.4494951367        0.1219494865
 H         -8.4861565341        1.0903283419        1.6832918895
 H         -8.5718681626       -0.4753527253        0.8619095579
 H         -8.0947444766       -0.3841012696        2.5609850332
 H         -6.1207245780        1.6455526661        2.7398784864
 H         -4.1331574074        2.6206114689        3.1634769225
 H         -3.1500699755        2.9530318253        1.7347573034
 H         -2.7037592539        1.6412258477        2.8162472381
 H         -3.9747994310        2.0391329586       -1.5890073139
 H         -3.6254810119        3.0120941014       -3.8130596779
 H          0.3566289018        1.4546260109       -3.8271110865
 H         -1.4788476394       -1.7744462953       -1.5322786680
 H         -0.8480454289       -3.9608099075       -0.6673959616
 H          0.3056467246       -5.8335144121       -1.0800131123
 H          1.9966181163       -5.5526603288       -1.4876277261
 H          1.5623801683       -6.8127847291       -0.3282603822
 H          3.0033064238       -4.2238269740        1.8709225704
 H          3.0231201641       -5.9237575927        1.4132615305
 H          3.6086525303       -4.7128359702        0.2784183770
 H          0.5328372737       -4.4376116945        2.3994632766
 H         -0.5734744793       -5.1445275048        1.2228696924
 H          0.6630986674       -6.1476194412        1.9781384854
 H          3.0473877501       -2.5122646214        0.3665866875
 H          4.3926973045       -0.2518524891        0.0698508824
 H          7.2970826078        2.9475300280       -1.5978023201
 H          5.7362762125        3.4573187207       -2.2355355422
 H          6.2780377249        1.7971686114       -2.4687892871
 H          7.4909197326        1.5045349291        0.3414779996
 H          6.0905588503        0.8051806953        1.1445889399
 H          6.5589407380        0.2529738190       -0.4735218273
 H          5.1141439457        3.1163303759        1.4582263336
 H          5.0121598943        4.2347544942        0.0996515158
 H          6.5883224844        3.7535480045        0.7235034048
 H          3.6191158381        3.6284547336       -1.5755499795
 H          1.3295784581        3.0096263964       -2.0895350386
 H         -2.9834051748       -1.3584015129        2.3706364567
 H         -2.4201369712       -1.8893394306        0.7918740577
 H         -1.7386369676       -2.6057090229        2.2539315258
 H          0.1526356761       -1.7648945615        3.1914599459
 H          2.3293754658       -1.1516392571        3.9468282190
 H          2.1931287473        0.4983985616        4.5620562809
 H          3.1628351537        0.1791927513        3.1280097136
 H          1.6204324702        2.1174737099        2.2597316669
 H         -1.1206842897        2.9925409551       -0.0278271275
 H         -0.6640381791        3.6351558357        1.5490772757
 H          0.5819711347        3.3087241416        0.3527758539
 H         -4.0231235743       -2.1757896960       -1.0519523739
 H         -3.3710636839       -0.7514169874       -1.8711512382
 H         -5.0412977821       -1.2537683868       -2.1494326064
 H         -6.6952556414       -1.1091654356       -0.4478636224
