168

C      0.609849   -4.678243    5.343523
C     -0.202675   -5.026714    4.267807
C     -0.341721   -4.155269    3.184914
C      0.331552   -2.920274    3.153918
N      0.191599   -2.027748    2.026782
C      1.330819   -1.294754    1.529884
C      1.204422    0.035816    1.099490
C      2.316104    0.758078    0.647980
C      3.588611    0.171144    0.603279
C      4.770585    0.931471    0.172315
C      5.156341    2.103236    0.843018
C      6.329289    2.779470    0.494974
C      7.147542    2.295281   -0.529569
C      8.428377    2.952918   -0.803112
N      8.522618    4.187497   -1.247372
C      9.861494    4.432831   -1.429689
C     10.480496    5.596648   -1.940174
C      9.649123    6.638701   -2.402625
C     10.200596    7.797324   -2.936730
C     11.580915    7.922760   -3.012543
C     12.409976    6.893824   -2.547060
C     11.891622    5.694998   -1.989742
C     12.684888    4.624128   -1.458003
C     14.100823    4.668049   -1.402761
C     14.864421    3.649697   -0.825426
C     14.236926    2.553236   -0.260566
C     12.848689    2.458122   -0.302128
C     12.060208    3.455531   -0.926186
C     10.635538    3.354338   -1.007978
N      9.693066    2.364931   -0.710636
C      9.937396    0.981672   -0.482559
C      9.307425    0.316705    0.572709
C      9.471456   -1.062071    0.722011
C     10.266364   -1.798437   -0.173294
N     10.398609   -3.228904   -0.036521
C     11.694432   -3.850427   -0.190049
C     12.856986   -3.228136    0.299569
C     14.111687   -3.824760    0.149980
C     14.225988   -5.049844   -0.500848
C     13.088608   -5.684989   -0.992476
C     11.833601   -5.088194   -0.841187
C      9.227096   -4.025422    0.250524
C      9.287543   -5.113313    1.138993
C      8.147473   -5.869449    1.431258
C      6.926853   -5.551964    0.838843
C      6.846500   -4.482200   -0.048687
C      7.985425   -3.727348   -0.342959
C     10.910912   -1.109032   -1.214063
C     10.748087    0.270709   -1.374293
C      6.735179    1.169217   -1.251853
C      5.563312    0.491552   -0.898984
C      3.713237   -1.164950    1.014952
C      2.602456   -1.886047    1.469042
C     -1.091071   -1.882087    1.390420
C     -2.257738   -1.717461    2.150058
C     -3.509131   -1.602780    1.531265
C     -3.646352   -1.662877    0.134696
C     -4.975255   -1.589799   -0.510696
C     -6.090882   -2.237622    0.049753
C     -7.352398   -2.174913   -0.552736
C     -7.531376   -1.466385   -1.743143
C     -8.845551   -1.426411   -2.382179
N     -9.236051   -2.326339   -3.261014
C    -10.555086   -2.053450   -3.533046
C    -11.451826   -2.764701   -4.362459
C    -10.993586   -3.958246   -4.958767
C    -11.841979   -4.719185   -5.754495
C    -13.146462   -4.292353   -5.964378
C    -13.598961   -3.100205   -5.384561
C    -12.770731   -2.290606   -4.564060
C    -13.166448   -1.047772   -3.967155
C    -14.444187   -0.467088   -4.168402
C    -14.801461    0.771317   -3.625860
C    -13.886212    1.487356   -2.873722
C    -12.621835    0.952137   -2.639477
C    -12.258181   -0.322641   -3.139880
C    -10.979339   -0.904802   -2.869447
N     -9.905025   -0.588955   -2.029430
C     -9.924529    0.286456   -0.907909
C     -8.884204    1.193194   -0.688484
C     -8.924084    2.038163    0.425249
C     -9.985604    1.978788    1.342436
N    -10.019757    2.851703    2.490788
C    -10.325450    2.298939    3.788327
C    -11.134854    2.988204    4.705664
C    -11.431346    2.441788    5.956796
C    -10.928312    1.192383    6.309993
C    -10.127310    0.490090    5.415176
C     -9.827070    1.040065    4.167259
C     -9.745854    4.260107    2.328799
C     -9.040069    4.983450    3.306624
C     -8.772781    6.345621    3.143797
C     -9.202291    7.010258    1.996749
C     -9.899120    6.313352    1.013595
C    -10.168619    4.951497    1.178096
C    -11.012025    1.046787    1.117791
C    -10.987745    0.206797    0.000814
C     -6.431074   -0.838675   -2.331522
C     -5.174200   -0.889237   -1.713559
C     -2.470509   -1.818228   -0.618806
C     -1.213935   -1.914316   -0.004424
C      1.145236   -2.587298    4.252441
C      1.284397   -3.458738    5.338346
H      0.717916   -5.354614    6.187480
H     -0.726219   -5.980214    4.266724
H     -0.966791   -4.458505    2.348460
H      0.239163    0.535937    1.140299
H      2.180095    1.789681    0.330284
H      4.560752    2.478405    1.672290
H      6.618486    3.672237    1.045451
H      8.566946    6.539880   -2.346771
H      9.554615    8.595624   -3.289566
H     12.021393    8.824513   -3.429528
H     13.481780    7.055372   -2.626338
H     14.648750    5.517967   -1.801818
H     15.947943    3.733280   -0.800731
H     14.824224    1.773594    0.216076
H     12.400275    1.603695    0.194613
H      8.687376    0.846318    1.291356
H      8.974686   -1.563249    1.549275
H     12.788827   -2.277833    0.823451
H     14.996165   -3.327559    0.536488
H     15.201707   -5.513758   -0.619205
H     13.175371   -6.640083   -1.503338
H     10.960914   -5.591407   -1.250960
H     10.224929   -5.364294    1.632358
H      8.213476   -6.703295    2.125744
H      6.039615   -6.136180    1.071515
H      5.898223   -4.236558   -0.517343
H      7.899924   -2.907442   -1.051656
H     11.522054   -1.651945   -1.932029
H     11.228565    0.762728   -2.217398
H      7.333937    0.791409   -2.078266
H      5.277965   -0.399183   -1.457026
H      4.686388   -1.654911    1.001702
H      2.740937   -2.921987    1.772574
H     -2.198159   -1.667067    3.235685
H     -4.381129   -1.459873    2.165081
H     -5.986897   -2.824736    0.960600
H     -8.187422   -2.701909   -0.097017
H     -9.972106   -4.296975   -4.790053
H    -11.485998   -5.640628   -6.204517
H    -13.819418   -4.880296   -6.583930
H    -14.627271   -2.816582   -5.590858
H    -15.196215   -0.965700   -4.773999
H    -15.791434    1.181578   -3.812955
H    -14.150108    2.463128   -2.473880
H    -11.921509    1.566396   -2.082301
H     -8.053279    1.292236   -1.380553
H     -8.108201    2.739164    0.584248
H    -11.556724    3.955301    4.443754
H    -12.060010    2.990059    6.651165
H    -11.157290    0.766659    7.284108
H     -9.731849   -0.485227    5.687555
H     -9.184048    0.480158    3.492014
H     -8.675092    4.483576    4.200909
H     -8.224152    6.883741    3.911928
H     -8.990884    8.067885    1.867928
H    -10.236573    6.826122    0.115899
H    -10.729969    4.434737    0.402791
H    -11.849764    0.984424    1.808549
H    -11.796374   -0.509280   -0.132591
H     -6.543280   -0.304558   -3.273123
H     -4.346714   -0.365152   -2.186407
H     -2.517377   -1.891795   -1.703835
H     -0.333856   -2.056133   -0.628266
H      1.664648   -1.631661    4.278827
H      1.917582   -3.181895    6.178066
