  101
 
 C          5.0243577100       -2.1165773667       -0.6100349505
 C          5.9462659927       -0.9828603019       -0.2761654700
 C          7.3203392458       -1.1658825775       -0.2908651221
 C          8.1869156040       -0.1260790954        0.0280065464
 N          9.5762675869       -0.3364512746        0.0013570254
 C         10.2938099246       -0.8520991614       -1.0580365220
 C          9.8570382618       -1.2306819825       -2.3201480479
 C         10.7988676418       -1.7001016411       -3.2154313009
 C         12.1476365546       -1.7861754982       -2.8743691125
 C         12.5914645215       -1.3918417033       -1.6277364152
 C         11.6634543953       -0.9163343429       -0.7096350269
 C         11.7653947851       -0.4165679405        0.6329636241
 C         12.8259418043       -0.2488951098        1.5145785465
 C         12.5672922093        0.2545356445        2.7740138722
 C         11.2686872853        0.5779086122        3.1638907604
 C         10.1974186029        0.4198997474        2.3057098954
 C         10.4536418901       -0.0668972229        1.0312202168
 C          7.6716566574        1.1183291962        0.3722695097
 C          6.3025622795        1.3047868563        0.3959098578
 C          5.4341865034        0.2699102583        0.0730056025
 C          3.9705705997        0.5004152237        0.1185994170
 C          3.2608228218        0.1562478786        1.2618217661
 C          1.8974981402        0.3672983601        1.3435126880
 C          1.2268700343        0.9207637476        0.2594997958
 N         -0.1631801287        1.1355427492        0.3223435264
 C         -0.8050228898        2.3359608357        0.0776073120
 C         -0.2706233584        3.5703606891       -0.2629894487
 C         -1.1467116627        4.6255281254       -0.4345846750
 C         -2.5210432877        4.4663774718       -0.2659123448
 C         -3.0566367144        3.2449519925        0.0923050803
 C         -2.1951538604        2.1701733073        0.2719398437
 C         -2.3909393035        0.7965160739        0.6470845408
 C         -3.5136387625        0.0481164653        0.9511265501
 C         -3.3565972086       -1.2999088950        1.2685601517
 C         -4.5001299622       -2.1450424259        1.6479235918
 O         -4.3665685180       -3.1492495356        2.3379945081
 C         -5.8449226948       -1.7305827606        1.1696223662
 C         -6.0492656915       -1.2477106440       -0.1223198369
 C         -7.3171440640       -0.8997409849       -0.5443049343
 C         -8.4015735799       -1.0134352639        0.3230380195
 N         -9.6924195808       -0.6310288638       -0.0997178836
 C        -10.7282598067       -1.5678424558       -0.1536442724
 C        -10.5198218985       -2.9193658780        0.0942436892
 C        -11.5684584947       -3.8245403584        0.0284426414
 C        -12.8401468377       -3.3978695696       -0.2976384654
 C        -13.0589974787       -2.0570759751       -0.5798196901
 C        -12.0160892191       -1.1515281871       -0.5167154602
 O        -12.3057335286        0.1540356126       -0.8400247771
 C        -11.2717085675        1.0605665049       -0.7965874001
 C        -11.5766491413        2.3693563365       -1.1221234029
 C        -10.5967955635        3.3504487518       -1.0729140507
 C         -9.3174624557        3.0121427744       -0.6807976550
 C         -9.0071279235        1.7004393682       -0.3544388159
 C         -9.9690593542        0.6999096862       -0.4259002641
 C         -8.2042059174       -1.5108394260        1.6096382138
 C         -6.9394733637       -1.8794009289        2.0197794444
 C         -2.0722142022       -1.8737544392        1.2822274408
 C         -0.9452419268       -1.1483945665        0.9738285649
 C         -1.1030393782        0.2005192180        0.6674678670
 C          1.9317105117        1.2630401850       -0.8886356418
 C          3.3018695613        1.0667209207       -0.9705059472
 C          4.0539668330        1.4528639188       -2.2074864568
 H          4.2327300339       -1.7879293819       -1.2807688852
 H          5.5693807023       -2.9339425819       -1.0756004953
 H          4.5502573573       -2.4928048140        0.2964852052
 H          7.7307819165       -2.1335709624       -0.5414479434
 H          8.8167515952       -1.1534952035       -2.5980924141
 H         10.4840082543       -2.0037337317       -4.2034455287
 H         12.8532007213       -2.1608940977       -3.6016381741
 H         13.6386685660       -1.4463333322       -1.3691880197
 H         13.8307283911       -0.5117617757        1.2182236849
 H         13.3787478103        0.3939197726        3.4734738919
 H         11.0961568878        0.9578621378        4.1605792305
 H          9.1929416777        0.6593191799        2.6210886218
 H          8.3418243401        1.9312284718        0.6082708993
 H          5.8970894610        2.2689015824        0.6673620806
 H          3.7890194880       -0.2728326646        2.1009746984
 H          1.3549349994        0.1167755864        2.2426490709
 H          0.7932548174        3.7060947832       -0.3823012955
 H         -0.7572051410        5.5967849190       -0.7023095335
 H         -3.1724271006        5.3153680602       -0.4119041598
 H         -4.1198419959        3.1243165283        0.2358331190
 H         -4.4881580631        0.5105719469        0.9688169936
 H         -5.2167651541       -1.1724694901       -0.8056636585
 H         -7.4771562713       -0.5403948816       -1.5501158129
 H         -9.5284804497       -3.2695825149        0.3352360429
 H        -11.3772086705       -4.8669828356        0.2322905198
 H        -13.6606310733       -4.0963591468       -0.3459406227
 H        -14.0358531082       -1.6924105851       -0.8565771129
 H        -12.5912765118        2.6009190909       -1.4062064722
 H        -10.8440513327        4.3681712865       -1.3308763669
 H         -8.5478114134        3.7662499251       -0.6200868251
 H         -8.0075676256        1.4544933559       -0.0335121441
 H         -9.0455776607       -1.6047275156        2.2801408333
 H         -6.7765842932       -2.2699253215        3.0136395067
 H         -1.9952732913       -2.9212142672        1.5353037657
 H          0.0288357363       -1.6126052120        0.9676192591
 H          1.3974334154        1.6782216853       -1.7309005531
 H          4.6736204118        2.3277587148       -2.0116687062
 H          3.3702434113        1.6888886800       -3.0189501666
 H          4.7168095294        0.6492134740       -2.5228406183
