  49
 
 O          2.1634771244        0.6883472694        2.0237815506
 B          2.8215363160        0.1836676515        0.9448381832
 O          3.9386279001        0.8239144453        0.5395504545
 C          2.4071159029       -1.1421817772        0.1790415023
 C          3.3716908631       -2.1260825396       -0.0290023854
 C          3.0699422424       -3.3110249813       -0.6757063965
 C          1.7848891397       -3.5290821755       -1.1418299631
 C          0.8193934056       -2.5565346211       -0.9594582626
 C          1.1065576627       -1.3639506229       -0.3007182989
 Si        -0.2451185028       -0.0491960871       -0.1145142063
 C         -1.0432416464       -0.2068070600        1.6037256690
 C         -2.1688451836        0.5440859732        1.9329108549
 C         -2.7567107879        0.4437590010        3.1807250958
 C         -2.2313521114       -0.4207636293        4.1269762226
 C         -1.1241007903       -1.1901052207        3.8126917873
 C         -0.5392351227       -1.0824501768        2.5627408022
 C          0.5244359101        1.6602311182       -0.3779533660
 C          0.2204868815        2.7508480849        0.4294777257
 C          0.8214003008        3.9795706762        0.2243336929
 C          1.7417987391        4.1393831772       -0.7976928296
 C          2.0573909078        3.0636940033       -1.6105481861
 C          1.4539102447        1.8377651791       -1.3991782834
 C         -1.6177282178       -0.3342644748       -1.3912403380
 C         -1.6364720607        0.3418893846       -2.6068324252
 C         -2.6336002397        0.1103254284       -3.5373861943
 C         -3.6349517694       -0.8068090957       -3.2666517321
 C         -3.6344071817       -1.4863073229       -2.0598396640
 C         -2.6349924522       -1.2490461981       -1.1340145317
 H          1.3778368350        0.2276627299        2.3177482959
 H          4.1339331671        1.6112771029        1.0497395795
 H          4.3761968690       -1.9487844217        0.3268668732
 H          3.8355135435       -4.0598609596       -0.8206068979
 H          1.5383980300       -4.4494501946       -1.6520548226
 H         -0.1799552124       -2.7200673197       -1.3384396470
 H         -2.5932652687        1.2077370083        1.1928338543
 H         -3.6282641196        1.0373441719        3.4169369230
 H         -2.6885025018       -0.5007326511        5.1023989276
 H         -0.7179387630       -1.8771701401        4.5411346317
 H          0.3112284962       -1.7056553985        2.3173470144
 H         -0.4879812797        2.6334119429        1.2367973769
 H          0.5752237335        4.8144825899        0.8651572472
 H          2.2145544534        5.0979496829       -0.9575151989
 H          2.7793472740        3.1797117878       -2.4060740276
 H          1.7162896742        0.9988639150       -2.0279025606
 H         -0.8608610952        1.0628828763       -2.8222349424
 H         -2.6313491725        0.6460820787       -4.4760218907
 H         -4.4144859909       -0.9898939300       -3.9920758208
 H         -4.4151710855       -2.2010286219       -1.8413893533
 H         -2.6426470606       -1.7776396585       -0.1908700399
