  64
 
 O          6.2376674990        1.6413541048        1.4196452967
 S          5.7216350029        1.2065516637        0.1267420582
 O          6.2200679857        1.9829342211       -1.0026425985
 C          5.9197658998       -0.5378939317       -0.1199957779
 C          7.0843163122       -1.2524356397       -0.2108654592
 C          7.0197520167       -2.6285402949       -0.4049307497
 C          5.7670394124       -3.2598996480       -0.4988500245
 C          4.5986986469       -2.5523257927       -0.4073634791
 C          4.6330087082       -1.1489781008       -0.2069829929
 C          3.5561727027       -0.2558287778       -0.0647225071
 C          2.1734958925       -0.5267877266       -0.1125159476
 C          1.2680497660        0.4960770165        0.0059302346
 N         -0.1266793626        0.2444854122       -0.0192616104
 C         -0.8603250264        0.7896572244       -1.0508781167
 C         -0.2047650906        1.4249434561       -2.1212438527
 C         -0.9263452775        2.0030108022       -3.1405078512
 C         -2.3156655719        1.9464234006       -3.1357265460
 C         -2.9688458630        1.2810161043       -2.1147725883
 C         -2.2628584251        0.6921552117       -1.0754336627
 C         -3.0130164414       -0.0492549329       -0.0086637720
 C         -4.0098466690        0.8730889759        0.6864259560
 C         -3.7428194668        1.9979293147        1.4338621812
 C         -4.8135556980        2.6964938183        1.9784846916
 C         -6.1170958272        2.2702182999        1.7737851343
 C         -6.3864355176        1.1363976406        1.0231627111
 C         -5.3240128266        0.4341122382        0.4774980500
 C         -5.2888149407       -0.7701203785       -0.3389592985
 C         -6.3073603924       -1.5788939233       -0.8166478156
 C         -5.9726787616       -2.6825636937       -1.5857875019
 C         -4.6482258724       -2.9751129840       -1.8742659826
 C         -3.6212066007       -2.1686146085       -1.3989364660
 C         -3.9525919761       -1.0729596635       -0.6338086767
 C         -2.1116956633       -0.6876800802        1.0072418045
 C         -2.6794340052       -1.4495829987        2.0196796773
 C         -1.9035162652       -2.0039871241        3.0191126392
 C         -0.5320449473       -1.7719137086        3.0294664064
 C          0.0531564838       -1.0239807092        2.0343083452
 C         -0.7186065840       -0.4903736953        0.9879152676
 C          1.6847104390        1.8533781763        0.1881913319
 C          3.0421724540        2.1350191140        0.2564272480
 C          3.9517977145        1.1211798118        0.1272028796
 H          8.0329450058       -0.7402238032       -0.1348436716
 H          7.9255343557       -3.2082829810       -0.4837660326
 H          5.7355830317       -4.3297289218       -0.6476116034
 H          3.6471783269       -3.0560497643       -0.4805768599
 H          1.8301521905       -1.5395991944       -0.2579658579
 H          0.8726070602        1.4482295221       -2.1462211916
 H         -0.4053203007        2.4900623465       -3.9502161387
 H         -2.8813808753        2.4003249327       -3.9341903023
 H         -4.0458020150        1.2091385139       -2.1187842270
 H         -2.7290982508        2.3332678498        1.5968560311
 H         -4.6261816701        3.5819139247        2.5677049974
 H         -6.9333292873        2.8299645991        2.2066189692
 H         -7.4030012680        0.8081755693        0.8676313059
 H         -7.3398334853       -1.3550443818       -0.5947681225
 H         -6.7540743558       -3.3239878494       -1.9664351758
 H         -4.4102732897       -3.8400235585       -2.4755850912
 H         -2.5910577528       -2.3991988355       -1.6269456227
 H         -3.7485029499       -1.5990825441        2.0195137197
 H         -2.3613593832       -2.5978116983        3.7945130460
 H          0.0810312777       -2.1740166854        3.8211287168
 H          1.1141514181       -0.8359856447        2.0609052504
 H          0.9452545742        2.6247623179        0.3215257400
 H          3.3880180014        3.1480720167        0.4001321881
