  71
 
 C          5.0267778931        0.4049454267       -2.4654316362
 C          5.3973347500       -0.9252413027       -2.5564523875
 C          4.9616084409       -1.8333333673       -1.6098650153
 C          4.1586524270       -1.4118251098       -0.5546991261
 C          3.7928776917       -0.0663809961       -0.4508031936
 C          4.2269431151        0.8248126110       -1.4144629600
 C          2.9833243893        0.3661852225        0.7375922128
 C          2.0980477062       -0.7436666491        1.2338553619
 C          2.5693970904       -2.0557125802        1.1366446327
 C          1.8814320338       -3.0977029603        1.7498324868
 C          0.7398616246       -2.8303770816        2.4801607180
 C          0.2334376958       -1.5457136692        2.5237159654
 C          0.8805413305       -0.5053485856        1.8618219855
 C          0.2127957369        0.8136697998        1.7763888259
 C          0.0522991940        1.6275249766        2.8862614133
 C         -0.6280502536        2.8262229713        2.7856777397
 C         -1.1589299720        3.2293775511        1.5646764356
 C         -0.9949412009        2.4268892406        0.4304705373
 C         -0.3222254635        1.2190347890        0.5424354142
 C         -0.1017605638        0.3337165029       -0.6271101804
 C          0.8270725989        0.7004921479       -1.5972494436
 C          1.1797284139       -0.1799537094       -2.6017826389
 C          0.6345315319       -1.4486320571       -2.6307484254
 C         -0.3323376099       -1.8074733016       -1.6972481747
 C         -0.7425094623       -0.8968215818       -0.7193547318
 C         -1.9228971261       -1.2597783522        0.1389096962
 C         -1.9755322753       -2.7376794810        0.4003254402
 C         -2.5473353151       -3.2665602611        1.5425734319
 C         -2.6359473286       -4.6372206245        1.7260801709
 C         -2.1446755459       -5.4927226713        0.7555914670
 C         -1.5567762137       -4.9820254737       -0.3863363349
 C         -1.4676226545       -3.6059809485       -0.5702932127
 N         -0.8861252081       -3.0768009714       -1.7093274916
 C         -1.5338118996        2.8960217475       -0.8942674525
 C         -2.6529513280        3.8881384978       -0.7392983825
 C         -3.5693564641        4.1034240473       -1.7533779164
 C         -4.5509953863        5.0743054283       -1.6360238391
 C         -4.6216382665        5.8422117767       -0.4866925619
 C         -3.7301430954        5.6259195464        0.5467467298
 C         -2.7459193148        4.6484335105        0.4302552321
 N         -1.8574984806        4.4187716820        1.4640381797
 N          3.7193316211       -2.3053144131        0.4056062376
 H          5.3647139624        1.1148998684       -3.2053099550
 H          6.0244937170       -1.2599131897       -3.3697055284
 H          5.2433253359       -2.8750550617       -1.6811788056
 H          3.9475146478        1.8656698335       -1.3340985653
 H          3.6759298006        0.6265381239        1.5522671878
 H          2.4051023306        1.2625680689        0.5152022003
 H          2.2543268102       -4.1087786264        1.6639187095
 H          0.2246504362       -3.6326128157        2.9864933068
 H         -0.6777393938       -1.3415935033        3.0653839361
 H          0.4645348492        1.3174020700        3.8352425934
 H         -0.7566422888        3.4550749176        3.6555270282
 H          1.2825223174        1.6778543391       -1.5540588739
 H          1.9080355384        0.1099120108       -3.3439197669
 H          0.9449436313       -2.1625917252       -3.3807456370
 H         -2.8345134867       -0.9707655839       -0.4057554577
 H         -1.9189088251       -0.6968575005        1.0721238462
 H         -2.9415230607       -2.5966975282        2.2933411745
 H         -3.0927391207       -5.0349208018        2.6198155036
 H         -2.2139503118       -6.5623566329        0.8888304846
 H         -1.1644696013       -5.6469532946       -1.1436931778
 H         -0.4859827975       -3.7355539392       -2.3622286518
 H         -0.7208805823        3.3769912711       -1.4559349292
 H         -1.8612777750        2.0400347615       -1.4902996213
 H         -3.5046722655        3.5084122235       -2.6534226147
 H         -5.2523495545        5.2340220569       -2.4407472285
 H         -5.3780617585        6.6067699821       -0.3892997485
 H         -3.7896413625        6.2133454874        1.4526635939
 H         -2.0084466504        4.9328671738        2.3198053872
 H          3.9656906015       -3.2755393123        0.2709464003
