  65
 
 O          0.0104537145       -4.1788407931        2.8043923078
 S          0.0113666654       -3.8531825213        1.3816141635
 O          0.0163614036       -5.0227895890        0.5084041212
 C         -1.2858343502       -2.7198555925        0.9627421408
 C         -2.6395149748       -2.9039045553        1.0514906344
 C         -3.4960022569       -1.8758206160        0.6781408314
 C         -2.9407354403       -0.6616879028        0.2144937187
 N         -3.8284708597        0.3897322128       -0.1478428606
 C         -3.9134088271        1.5359953751        0.6234580553
 C         -3.1359893073        1.7261563091        1.7666763279
 C         -3.2470428633        2.8883671375        2.5056071727
 C         -4.1377241606        3.8831328614        2.1277354764
 C         -4.9334763973        3.7057270643        1.0095186913
 C         -4.8307567786        2.5423339373        0.2623976283
 O         -5.6571086058        2.4154841180       -0.8166134373
 C         -5.5609990115        1.2800185570       -1.5675971007
 C         -6.3955740616        1.1699642027       -2.6691636503
 C         -6.3287755703        0.0490167308       -3.4783579201
 C         -5.4156028458       -0.9558938294       -3.1928034121
 C         -4.5789634985       -0.8553061146       -2.0973844061
 C         -4.6468545247        0.2553410735       -1.2552631567
 C         -1.5834751656       -0.4683189988        0.1201872268
 C         -0.7006744539       -1.5001279296        0.5008290206
 C          0.7105751852       -1.4954609830        0.5030173650
 C          1.5877246415       -0.4576823996        0.1255045356
 C          2.9459191767       -0.6421952588        0.2238396550
 N          3.8278988740        0.4152047198       -0.1352266745
 C          4.6497066409        0.2870951943       -1.2408316072
 C          4.5904101302       -0.8229245852       -2.0844107230
 C          5.4300635206       -0.9171188926       -3.1780890611
 C          6.3378569086        0.0935910987       -3.4602927338
 C          6.3961875146        1.2138700824       -2.6495128247
 C          5.5585077857        1.3175607911       -1.5496892347
 O          5.6462261450        2.4525167291       -0.7968941416
 C          4.8165284352        2.5730723007        0.2802825904
 C          4.9106562006        3.7360024357        1.0292453765
 C          4.1111568602        3.9072366664        2.1457518570
 C          3.2252650027        2.9068517568        2.5200191944
 C          3.1227454529        1.7450418843        1.7792267212
 C          3.9041673084        1.5609308125        0.6377487837
 C          3.5077786506       -1.8528821142        0.6885281440
 C          2.6569385957       -2.8866466937        1.0590785456
 C          1.3023458271       -2.7114062638        0.9664539777
 H         -3.0292770088       -3.8439312908        1.4141530094
 H         -4.5653910734       -1.9860125516        0.7509868582
 H         -2.4514804243        0.9501891859        2.0695410783
 H         -2.6352659040        3.0149372006        3.3849213388
 H         -4.2197903562        4.7900856503        2.7049815670
 H         -5.6456255547        4.4528692237        0.6976883510
 H         -7.0848828905        1.9737146159       -2.8724326530
 H         -6.9812558675       -0.0337645690       -4.3328169789
 H         -5.3501845134       -1.8251515127       -3.8282495202
 H         -3.8648886745       -1.6339172267       -1.8825210491
 H         -1.1956958504        0.4705074008       -0.2450140020
 H          1.1949066078        0.4787991349       -0.2403283191
 H          3.8806326879       -1.6061200710       -1.8719598731
 H          5.3712995207       -1.7859686709       -3.8147463107
 H          6.9927899306        0.0157867397       -4.3133388858
 H          7.0812456678        2.0218860301       -2.8502184439
 H          5.6192081007        4.4877122127        0.7202078244
 H          4.1865458646        4.8138650286        2.7244247179
 H          2.6105778448        3.0286650434        3.3979752830
 H          2.4419142503        0.9647464521        2.0792704436
 H          4.5776528375       -1.9561276510        0.7643752024
 H          3.0517526867       -3.8242232773        1.4226042705
