  130
 
 O         -7.5347620578        0.0195491312       -1.0971731215
 P         -7.4879439277        0.0158422033        0.3765155770
 C         -9.1529672720        0.0091811164        1.1145636148
 C        -10.2348264588       -0.0927960025        0.2516579063
 C        -11.5256508737       -0.0910929645        0.7512426371
 C        -11.7350414490        0.0153906439        2.1165630974
 C        -10.6553985375        0.1239550050        2.9805266332
 C         -9.3649889157        0.1233721748        2.4835562660
 C         -6.6696122845        1.4649810787        1.1119036020
 C         -6.6650537004        2.6330060052        0.3642422563
 C         -6.0787044645        3.7788184557        0.8719805931
 C         -5.5008260828        3.7578938238        2.1311835712
 C         -5.5105123218        2.5927544504        2.8819172647
 C         -6.0959383853        1.4456867878        2.3763052296
 C         -6.6385805341       -1.4231891914        1.1076763033
 C         -7.2433207017       -2.4408440652        1.8248023687
 C         -6.4763246574       -3.4797579732        2.3266159510
 C         -5.1088002815       -3.5001542078        2.1071243718
 C         -4.4934811679       -2.4980253814        1.3762899089
 C         -5.2648983609       -1.4627115447        0.8686418547
 O         -4.7916930808       -0.4617669379        0.0715615145
 C         -3.4560974626       -0.1368752734        0.1285628646
 C         -2.8443508307        0.2670148895        1.3074729620
 C         -1.5177168818        0.6551159272        1.2977388044
 C         -0.7694509837        0.6418536787        0.1207406163
 C          0.6457281894        1.0403613779        0.1198239335
 C          1.0834403986        2.1341962988        0.8620270221
 C          2.4151478728        2.5038735463        0.8603909664
 C          3.3516249204        1.7796065306        0.1338025925
 C          4.8058059282        2.2033715460        0.0822165806
 C          5.7513466288        1.0186257824        0.0717384425
 C          5.4873178961       -0.0896854742        0.8701892747
 C          6.3680621637       -1.1518147352        0.9230530227
 C          7.5361994036       -1.1289689015        0.1671077809
 N          8.4254192800       -2.2147884191        0.2075269365
 C          9.7814971531       -2.1432947034        0.4542486787
 C         10.5685424665       -1.0401655493        0.7552809982
 C         11.9139199120       -1.2513094460        0.9890814865
 C         12.4705912564       -2.5279523074        0.9348295806
 C         11.6893207373       -3.6316991651        0.6559575994
 C         10.3335248722       -3.4452183570        0.4169860847
 C          9.2485575306       -4.3397606214        0.1243940188
 C          9.1639876981       -5.7145687258       -0.0569742636
 C          7.9355589456       -6.2686287879       -0.3578653637
 C          6.8020262650       -5.4686137178       -0.4905918357
 C          6.8605791384       -4.0993226583       -0.3148821054
 C          8.0887830151       -3.5384037412        0.0074531375
 C          7.8100631212       -0.0209347422       -0.6275864402
 C          6.9297032854        1.0443181649       -0.6633341819
 C          4.9756899844        3.1301334991       -1.1088068536
 C          4.7282869984        2.8764661135       -2.4413931780
 C          4.9396036373        3.8926583365       -3.3641897262
 C          5.3845838492        5.1414700336       -2.9570521915
 C          5.6277898285        5.4048700324       -1.6184540502
 C          5.4190082616        4.3942220281       -0.6939975244
 C          5.5816174490        4.3779692567        0.7511333810
 C          6.0078558813        5.3633362032        1.6270206020
 C          6.0693161857        5.0687129456        2.9797325729
 C          5.7147150296        3.8125486679        3.4484454730
 C          5.2880380015        2.8210997629        2.5744010541
 C          5.2177352275        3.1106383519        1.2281041070
 C          2.9147223948        0.6921811489       -0.6162020952
 C          1.5829273247        0.3288914531       -0.6261520049
 C         -1.3938863352        0.2270213762       -1.0525317129
 C         -2.7241223201       -0.1567516831       -1.0560019525
 P         -3.4514065667       -0.7700489599       -2.6070914453
 O         -2.4297661728       -0.8688440260       -3.6719285623
 C         -4.7986827209        0.3534902722       -3.0821040553
 C         -4.8792112071        1.6466071092       -2.5922045751
 C         -5.8383308668        2.5090812351       -3.0944434832
 C         -6.7173472581        2.0786545558       -4.0736346548
 C         -6.6309367994        0.7869486621       -4.5681791769
 C         -5.6637542633       -0.0718188521       -4.0812397791
 C         -4.1656821910       -2.3954013467       -2.1963305378
 C         -5.5131066321       -2.6118430929       -1.9459999412
 C         -5.9533198072       -3.8883707570       -1.6407641020
 C         -5.0561866040       -4.9422165609       -1.5786792497
 C         -3.7098205110       -4.7257610065       -1.8273413721
 C         -3.2661088892       -3.4534020067       -2.1380882934
 H        -10.0435195869       -0.1718147149       -0.8096409089
 H        -12.3655938580       -0.1722382299        0.0768397970
 H        -12.7412017248        0.0169360270        2.5093580647
 H        -10.8218617919        0.2102778051        4.0443696296
 H         -8.5218796414        0.2101771756        3.1527505281
 H         -7.1142313300        2.6155665562       -0.6188736647
 H         -6.0724851915        4.6879637291        0.2885682469
 H         -5.0408932233        4.6507809979        2.5285566956
 H         -5.0586923636        2.5784839487        3.8633996391
 H         -6.0968959849        0.5310412382        2.9541449237
 H         -8.3099388180       -2.4103973553        1.9947633346
 H         -6.9458376184       -4.2717332119        2.8895465640
 H         -4.5103996554       -4.3084139395        2.4993207140
 H         -3.4305482919       -2.5241403818        1.1859799670
 H         -3.4144524542        0.2748986434        2.2244580528
 H         -1.0494129582        0.9551073886        2.2228665767
 H          0.3703190128        2.7168274565        1.4263416010
 H          2.7288620433        3.3646915257        1.4323014426
 H          4.5797965128       -0.1255077016        1.4544615881
 H          6.1599659822       -2.0003560364        1.5578700113
 H         10.1434380763       -0.0494395542        0.8150534105
 H         12.5481127797       -0.4083775055        1.2229884609
 H         13.5272849261       -2.6517743589        1.1220782387
 H         12.1187791902       -4.6221865112        0.6277669959
 H         10.0445126195       -6.3334900882        0.0318855354
 H          7.8483268187       -7.3358067499       -0.5013341010
 H          5.8569741733       -5.9292318166       -0.7399821037
 H          5.9796146080       -3.4869613007       -0.4353048998
 H          8.7091808206       -0.0012577358       -1.2251790778
 H          7.1590589694        1.8993744248       -1.2816351420
 H          4.3797564507        1.9080591004       -2.7679956228
 H          4.7528257945        3.7072779354       -4.4120599609
 H          5.5414010763        5.9174578400       -3.6925052973
 H          5.9708786606        6.3792105560       -1.3034073980
 H          6.2878148580        6.3411462877        1.2639940844
 H          6.3987388720        5.8252217931        3.6774926685
 H          5.7713762975        3.6017591614        4.5065931327
 H          5.0146181270        1.8453816647        2.9474546387
 H          3.6261545184        0.1162831014       -1.1899745532
 H          1.2664516578       -0.5275146828       -1.2034772971
 H         -0.8598885378        0.2025685344       -1.9922698427
 H         -4.1962306609        1.9728699753       -1.8191280340
 H         -5.8975565385        3.5215304922       -2.7216603416
 H         -7.4709178022        2.7519598350       -4.4559288575
 H         -7.3146247247        0.4517436809       -5.3346861438
 H         -5.5679044029       -1.0786592715       -4.4684232935
 H         -6.2072301990       -1.7852950483       -1.9804250869
 H         -7.0030058554       -4.0568780357       -1.4491028013
 H         -5.4073268198       -5.9349078679       -1.3383813753
 H         -3.0090280810       -5.5465764623       -1.7813384296
 H         -2.2227100439       -3.2606030897       -2.3516025752
