  58
 
 C          6.3961492835       -3.5599125310       -0.9278746932
 C          5.5480007373       -4.6259557086       -1.1948198099
 N          4.2285828317       -4.5363452806       -1.1461684478
 C          3.6932564682       -3.3736505908       -0.8316304528
 C          4.4454407082       -2.2318895777       -0.5493061440
 C          3.7957010619       -0.9630287550       -0.2145159009
 N          2.4702307978       -0.9371023465       -0.2036778918
 C          1.8608061699        0.2129429703        0.0792698937
 C          0.3966772199        0.1929491524        0.0701282468
 C         -0.2610232391       -0.8602370673       -0.5690032405
 C         -1.6369199695       -0.9189097680       -0.6010679317
 C         -2.3937591710        0.0774199371        0.0134073553
 N         -3.7996369378        0.0232267148       -0.0125638838
 C         -4.5389633322        1.0389243283       -0.6256787396
 C         -3.9353112430        2.0951047310       -1.2966021741
 C         -4.6984677920        3.0833675353       -1.8996068618
 C         -6.0764901631        3.0268407358       -1.8530104069
 C         -6.6949744226        1.9609606285       -1.2167550797
 C         -5.9386048630        0.9717255228       -0.6160401235
 O         -6.6223989830       -0.0676394210       -0.0379069716
 C         -5.8830968042       -1.0631082248        0.5505197112
 C         -6.5856424233       -2.0997632763        1.1364585614
 C         -5.9118863706       -3.1256048942        1.7821716885
 C         -4.5340220332       -3.0947731321        1.8524178158
 C         -3.8245713862       -2.0585305674        1.2646086426
 C         -4.4825423549       -1.0408688864        0.5854279321
 C         -1.7445995796        1.1269434036        0.6603346326
 C         -0.3668749721        1.1834759713        0.6880720040
 C          2.6092289828        1.3614539057        0.3531904668
 C          3.9951870249        1.2309076752        0.3433979450
 C          4.8876154124        2.3560741777        0.6316120354
 C          6.1746173148        2.4137869541        0.0894845803
 N          7.0007345920        3.4126359252        0.3345753764
 C          6.5524876409        4.3784649492        1.1176493963
 N          5.3660840478        4.4284893196        1.6956978245
 C          4.5439404489        3.4206588167        1.4648654621
 N          4.5833288522        0.0728399378        0.0549683436
 C          5.8345675334       -2.3398253401       -0.5989947281
 H          7.4669588851       -3.6841029276       -0.9771595389
 H          5.9387289428       -5.5999954689       -1.4592766520
 H          2.6137129320       -3.3341585037       -0.7960734688
 H          0.3334542540       -1.6216815025       -1.0482743252
 H         -2.1385771757       -1.7297177156       -1.1080897896
 H         -2.8593118937        2.1420020742       -1.3578976722
 H         -4.2018291080        3.8944261025       -2.4096135298
 H         -6.6747946676        3.7951955121       -2.3164029637
 H         -7.7690922465        1.8744150271       -1.1801858310
 H         -7.6622952133       -2.0812187270        1.0810926490
 H         -6.4681995432       -3.9314440470        2.2340537517
 H         -3.9954772218       -3.8741881967        2.3689733670
 H         -2.7490975912       -2.0387724196        1.3444258590
 H         -2.3309758242        1.8898758158        1.1509807972
 H          0.1107791662        1.9910493221        1.2215352993
 H          2.1437044061        2.3155914260        0.5325003096
 H          6.5319077873        1.6282921952       -0.5626608472
 H          7.2236669003        5.2054447595        1.3088451239
 H          3.5918854987        3.4620603585        1.9795470901
 H          6.4420006248       -1.4751220090       -0.3793530612
