49
 xtb: 6.7.1 (edcfbbe)
C            9.00032656195018       -0.48410331173527       -0.07115963210051
O            7.98366001784458       -1.46360654169480        0.03624785923251
C            6.68647925666860       -1.06357518891129        0.01821554051382
C            5.73060170744710       -2.08168020063972        0.15223974740267
C            4.38747769341618       -1.79045066703114        0.14705052045377
C            3.94155839137430       -0.46541955468409        0.00844208309465
C            2.53142084136772       -0.14704684246136       -0.00183298266785
C            1.45255295044910       -0.99194387955451        0.02269034057049
C            0.19877367635513       -0.34730288526613       -0.01577237368899
C           -1.06365842323153       -1.09263651459783       -0.02278266719616
C           -2.03704227881867       -0.84928229055421       -0.98810905777357
C           -3.21152807729533       -1.57459522493884       -0.99641033491216
C           -3.42150917558681       -2.55375952395452       -0.03205977748639
C           -4.68250089145288       -3.36108626294890       -0.05163555639241
F           -5.73187498173070       -2.70705230115025       -0.58324373602803
F           -5.07524306783819       -3.77102119546753        1.16529109367642
F           -4.55964175232618       -4.49539685105775       -0.78989773688299
C           -2.45142213912096       -2.81978993253663        0.92621941288677
C           -1.27766300757934       -2.09130096949900        0.92468589967142
C            0.31718631938968        1.02854468166202       -0.05368829913796
C           -0.70738850090966        2.02463701230714       -0.00885031634550
N           -1.99294961121990        1.78920152967096        0.10326467215290
C           -2.59909976183636        3.01321300254990        0.12451079927805
C           -3.94721069023318        3.34750813102678        0.22106803005902
C           -4.27535611363398        4.68662624337246        0.21265684647205
C           -3.30065497241441        5.68339666967623        0.11148286442607
C           -1.95756593431915        5.37619940741735        0.01461464093310
C           -1.61982137641488        4.03308596857837        0.02125419015317
N           -0.42441782157606        3.37046366787071       -0.06178250857234
S            1.98983172977236        1.50771346477030       -0.04666419866725
C            4.90400770497510        0.54159840844857       -0.12099310753739
C            6.25492199607697        0.25732934454219       -0.11732767283834
H            9.93872617527861       -1.03441108254446        0.01000500416583
H            8.94968067438076        0.10522770825610       -0.93735531631028
H            8.94722760512624        0.18433091396117        0.85046629040162
H            6.07730711436189       -3.10465738753274        0.12020782942851
H            3.67709513910005       -2.60158172160583        0.10741141387473
H            1.53864276878358       -2.06340594499437        0.03257166817443
H           -1.87253432102382       -0.09918966934561       -1.74228708648199
H           -3.96918216578471       -1.38863123385779       -1.74002175091343
H           -2.62098281929936       -3.57644163138230        1.67910590383833
H           -0.52578264252536       -2.28054148508207        1.67774386850625
H           -4.69684071184788        2.57284416763383        0.28971909435348
H           -5.31362168277949        4.97605132706368        0.27936015014084
H           -3.60899988979805        6.71655517370622        0.10845566495245
H           -1.20618991099545        6.14563946545181       -0.06228177646677
H            0.49069864664368        3.78136020403941       -0.14104090466469
H            4.58501142179706        1.57495646495192       -0.10821374869692
H            6.96087919144294        1.07382880266867       -0.09547417180286
