  61
 
 C         -5.8039576756       -0.2576701057        1.2454740889
 C         -4.8160737563        0.0210014312        0.0967243431
 C         -5.5827845677        0.2543235626       -1.2187109315
 C         -3.9147995668       -1.1881917845       -0.0644814418
 C         -4.4798579562       -2.4266381010       -0.3436586983
 C         -3.7181587570       -3.5746385751       -0.4540253024
 C         -2.3511262269       -3.4999078037       -0.2541646818
 C         -1.7642785322       -2.2829151571        0.0219243370
 C         -2.5273099447       -1.1131505560        0.0888601846
 N         -1.9009725839        0.1046590537        0.3450079701
 C         -0.4993363986        0.1325088345        0.5043857546
 C          0.0477686976        0.3363607833        1.7559537206
 C          1.4269789390        0.3422180593        1.9408621441
 C          2.2802313493        0.1481734193        0.8698399971
 C          1.7526298204       -0.0411978308       -0.4250746295
 C          2.6099079846       -0.2231684084       -1.5313824682
 C          2.0849918829       -0.3836279575       -2.7989755652
 C          0.7036792891       -0.3557090258       -2.9989885309
 C         -0.1492243730       -0.1921235931       -1.9370348102
 C          0.3481065970       -0.0443352334       -0.6260387456
 C          4.0663611637       -0.2412701650       -1.3402695807
 O          4.8597451509       -0.4121609267       -2.2484844128
 N          4.5147438162       -0.0524925134       -0.0418822067
 C          5.9393628643       -0.0548569445        0.1570822552
 C          6.5547363890       -1.1760659775        0.6891800628
 C          7.9249660908       -1.1711903801        0.8844348143
 C          8.6718550637       -0.0554485612        0.5456169544
 C          8.0496120162        1.0601365547        0.0109655189
 C          6.6792918978        1.0658137462       -0.1832433570
 C          3.7302465467        0.1483738062        1.0856359224
 O          4.2485461532        0.3181624997        2.1750802947
 C         -2.6310271149        1.2775980118        0.5187119657
 C         -1.9607986418        2.4848610798        0.7376744762
 C         -2.6562194864        3.6625127035        0.9158569397
 C         -4.0386473669        3.6599234999        0.8619084971
 C         -4.7014285070        2.4746735561        0.6043209631
 C         -4.0261262769        1.2743163966        0.4221694078
 H         -6.4700350040        0.5869193522        1.3967979696
 H         -5.2583750760       -0.4345405886        2.1708341383
 H         -6.4100682568       -1.1334960365        1.0323376872
 H         -4.8844914543        0.4774845527       -2.0234724308
 H         -6.1542529477       -0.6273185643       -1.4948036508
 H         -6.2712672978        1.0889836784       -1.1222833979
 H         -5.5480518297       -2.5031402327       -0.4764844200
 H         -4.1897133835       -4.5196259419       -0.6774280180
 H         -1.7385555489       -4.3877720853       -0.3063978505
 H         -0.6998461299       -2.2403555302        0.1933320988
 H         -0.6083214443        0.4808099108        2.6012343621
 H          1.8519250914        0.4835258009        2.9232002453
 H          2.7655488199       -0.5231011773       -3.6256384016
 H          0.3102461719       -0.4652426327       -3.9975805614
 H         -1.2163540892       -0.1736657206       -2.0965582516
 H          5.9612771058       -2.0403259411        0.9497429296
 H          8.4073100947       -2.0428096188        1.3006844560
 H          9.7406527346       -0.0551865395        0.6977866851
 H          8.6295077169        1.9313104898       -0.2543246389
 H          6.1823672666        1.9303430892       -0.5988363307
 H         -0.8821592518        2.5030409292        0.7616304628
 H         -2.1147296302        4.5805646752        1.0899209384
 H         -4.5957042134        4.5735801875        1.0041184706
 H         -5.7785414238        2.4911585457        0.5409292586
