  49
 
 O          2.9260532640       -1.2503923537       -0.3378462711
 B          3.1215193402       -0.1552449456        0.4652258112
 O          4.3301953652        0.4733979074        0.3790826038
 C          2.0668010668        0.3824636265        1.4692676032
 C          2.3936179664        1.3801162072        2.3975870001
 C          1.6248811246        1.5748687530        3.5214964943
 C          0.4636268453        0.7759743491        3.7539273275
 C          0.0479665292       -0.1131295254        2.8131886458
 C          0.7119275677       -0.1214313751        1.5567958662
 Si        -0.3945138526       -0.0716327081        0.0176213559
 C          0.6346287068        0.5731738896       -1.4313426672
 C          1.3695457653        1.7464187257       -1.2934727554
 C          2.1384308126        2.2333128478       -2.3356544653
 C          2.1869166881        1.5477046037       -3.5379865975
 C          1.4608779722        0.3781612249       -3.6911611288
 C          0.6928183433       -0.1022318994       -2.6451864995
 C         -0.8907780667       -1.9019993583       -0.2369251930
 C         -1.9181635616       -2.1983482608       -1.1271950881
 C         -2.2890330296       -3.5082531692       -1.3748507535
 C         -1.6391087335       -4.5475112603       -0.7289467668
 C         -0.6200035776       -4.2674842775        0.1656974187
 C         -0.2495365610       -2.9555121066        0.4069418659
 C         -1.9888966851        0.9332829948        0.1658571181
 C         -2.0873683318        2.2360281661       -0.3276289294
 C         -3.2351625077        2.9835260160       -0.1477612038
 C         -4.3163262953        2.4486396340        0.5369137125
 C         -4.2368227016        1.1579210657        1.0367093725
 C         -3.0877048926        0.4133917380        0.8544065465
 H          2.0774858692       -1.6847139297       -0.2574861719
 H          4.9076406845        0.0772097852       -0.2751015798
 H          3.3423385753        1.8850983019        2.2819180176
 H          1.9640986595        2.2434216264        4.2983456554
 H         -0.0691245241        0.8729135176        4.6882057003
 H         -0.8469562105       -0.6996074577        2.9562541402
 H          1.3409196212        2.2829414345       -0.3560958397
 H          2.7038805061        3.1457783455       -2.2086100882
 H          2.7902045614        1.9229750612       -4.3525146941
 H          1.4973414727       -0.1624982408       -4.6265824702
 H          0.1340601615       -1.0187250959       -2.7711040329
 H         -2.4341493543       -1.3914470233       -1.6271904155
 H         -3.0883735791       -3.7185154789       -2.0713502801
 H         -1.9283350488       -5.5708589097       -0.9202703136
 H         -0.1115196802       -5.0722848089        0.6773034013
 H          0.5400742353       -2.7465103022        1.1158784616
 H         -1.2538382506        2.6591181228       -0.8699779650
 H         -3.2921468348        3.9877368014       -0.5445338879
 H         -5.2147682595        3.0324051156        0.6770011319
 H         -5.0768302362        0.7323754639        1.5682327197
 H         -3.0398274215       -0.5957270609        1.2384136212
