  46
 
 N         -8.1509250378       -0.0048197915       -0.0038546149
 C         -6.9938794275       -0.0042488926       -0.0036072904
 C         -5.5990190845       -0.0033414161       -0.0035490767
 C         -4.8835761197       -0.3212128111       -1.1796728502
 C         -3.5123027436       -0.3216529034       -1.1753783716
 C         -2.8143939522       -0.0016330250       -0.0033964187
 N         -1.3897097647       -0.0007899816       -0.0033202403
 C         -0.7130798171        1.1940108934       -0.0164204287
 C         -1.3923549199        2.4166396555       -0.0601029085
 C         -0.7001478417        3.6057613422       -0.0395170447
 C          0.6960116442        3.6065619645        0.0328619928
 C          1.3895754512        2.4182349465        0.0534600242
 C          0.7116994004        1.1948270654        0.0097774574
 N          1.3897108777        0.0008094932       -0.0033542279
 C          2.8143936250        0.0016978163       -0.0034294805
 C          3.5128407605       -0.3174063655        1.1684783917
 C          4.8841107304       -0.3151301407        1.1726252932
 C          5.5990193572        0.0036552912       -0.0035680531
 C          6.9938779538        0.0045059031       -0.0036518106
 N          8.1509254726        0.0051493468       -0.0038153000
 C          4.8835563702        0.3215565525       -1.1796693589
 C          3.5122841922        0.3218667080       -1.1753837263
 C          0.7130814945       -1.1939914453       -0.0164391129
 C          1.3923530745       -2.4166212663       -0.0601541879
 C          0.7001433969       -3.6057416284       -0.0395410681
 C         -0.6960147163       -3.6065408972        0.0328977578
 C         -1.3895773439       -2.4182127838        0.0535167737
 C         -0.7117000525       -1.1948069213        0.0098052880
 C         -3.5128208615        0.3174948242        1.1685178952
 C         -4.8840911586        0.3153456652        1.1726566280
 H         -5.4314703975       -0.5621924051       -2.0785108348
 H         -2.9608474041       -0.5622568365       -2.0722180305
 H         -2.4692525017        2.4159963858       -0.1094217067
 H         -1.2393222107        4.5388530849       -0.0734247583
 H          1.2341275691        4.5402663616        0.0667651323
 H          2.4664721869        2.4188313206        0.1027894269
 H          2.9617982420       -0.5587008369        2.0653845436
 H          5.4324174800       -0.5553582955        2.0714127887
 H          5.4314345052        0.5626489305       -2.0784872063
 H          2.9608115225        0.5624874024       -2.0722078612
 H          2.4692493529       -2.4159763608       -0.1095203021
 H          1.2393118321       -4.5388363321       -0.0734761667
 H         -1.2341273172       -4.5402468228        0.0668247637
 H         -2.4664735136       -2.4188014553        0.1028815534
 H         -2.9617613602        0.5587071476        2.0654355834
 H         -5.4323807349        0.5555911679        2.0714502368
