  60
 
 C          7.8808527001        0.0000969386       -0.4318121033
 O          6.8988474772        0.0000130440       -1.4450351382
 C          5.5808576016       -0.0000001862       -1.0891178165
 C          4.6669754838       -0.0000681815       -2.1400667880
 C          3.3126536235       -0.0000783188       -1.8716747848
 C          2.8378053279       -0.0000248623       -0.5690077144
 C          1.3837245383       -0.0000236195       -0.2779331112
 C          0.7008764433        1.2145938844       -0.1407134989
 C          1.3647938232        2.4629194995       -0.2723571110
 C          0.6916720195        3.6378879270       -0.1374608466
 C         -0.6917248193        3.6378918907        0.1371340284
 C         -1.3648305240        2.4629272835        0.2721436008
 C         -0.7008972609        1.2145982322        0.1406176654
 C         -1.3837288788       -0.0000143344        0.2779565329
 C         -2.8378110165       -0.0000063663        0.5690177021
 C         -3.3126744740        0.0000396972        1.8716788100
 C         -4.6669999208        0.0000511187        2.1400549941
 C         -5.5808698111        0.0000156171        1.0890954911
 O         -6.8988643794        0.0000320069        1.4449973381
 C         -7.8808574940        0.0000122412        0.4317625426
 C         -5.1239696980       -0.0000329545       -0.2251260961
 C         -3.7585257239       -0.0000446565       -0.4872670059
 O         -3.2179711496       -0.0000932077       -1.7401758961
 C         -4.0785339155       -0.0001502896       -2.8565900997
 C         -0.7008806531       -1.2146314176        0.1407406962
 C         -1.3647976658       -2.4629565823        0.2723857759
 C         -0.6916755467       -3.6379252586        0.1374929354
 C          0.6917215880       -3.6379297660       -0.1371009367
 C          1.3648273418       -2.4629655797       -0.2721135244
 C          0.7008932802       -1.2146362340       -0.1405904637
 C          3.7585323534        0.0000365803        0.4872664056
 O          3.2179926501        0.0000834455        1.7401816888
 C          4.0785689600        0.0001482505        2.8565854308
 C          5.1239731197        0.0000491432        0.2251090719
 H          7.8103506539       -0.8948982738        0.1940905241
 H          8.8361385448        0.0001029038       -0.9542845628
 H          7.8102901511        0.8951500194        0.1940009195
 H          5.0387797441       -0.0001083754       -3.1520976671
 H          2.6021393907       -0.0001260924       -2.6849531188
 H          2.4240488133        2.4581973756       -0.4856720474
 H          1.2100369492        4.5805837064       -0.2399920406
 H         -1.2101021628        4.5805905709        0.2395762817
 H         -2.4240852268        2.4582117845        0.4854602183
 H         -2.6021699830        0.0000668326        2.6849657077
 H         -5.0388162525        0.0000874782        3.1520814827
 H         -8.8361496296        0.0000378990        0.9542235158
 H         -7.8103079751        0.8950172272       -0.1941207728
 H         -7.8103274291       -0.8950310414       -0.1940681578
 H         -5.8263301285       -0.0000615120       -1.0410076037
 H         -4.7079547403        0.8951335617       -2.8780498991
 H         -3.4230722937       -0.0001915652       -3.7260221911
 H         -4.7079502080       -0.8954394610       -2.8779609773
 H         -2.4240528125       -2.4582340065        0.4857000699
 H         -1.2100399924       -4.5806211131        0.2400261524
 H          1.2100994174       -4.5806284830       -0.2395400181
 H          2.4240822875       -2.4582498065       -0.4854291278
 H          4.7079716810        0.8954469726        2.8779532255
 H          4.7080037160       -0.8951260511        2.8780325348
 H          3.4231179798        0.0001748947        3.7260254921
 H          5.8263431050        0.0000985700        1.0409822854
