  99
 
 C          0.7134902596        1.6422314504        1.8714336663
 C         -0.2383624009        1.8696092871        0.7023582039
 C         -0.1632841673        3.2773324987        0.1490421139
 C         -1.3340350205        3.9964589554       -0.0491021671
 C         -1.3002188395        5.2551544816       -0.6192246719
 C         -0.0927558083        5.8081068801       -1.0045156092
 C          1.0784196547        5.0974171154       -0.8152643931
 C          1.0433475146        3.8394337640       -0.2442266486
 N         -0.0813301189        0.9244714394       -0.4236858303
 C         -1.2603535641        0.6516759948       -1.1238837544
 C         -2.3273022151        0.0570992964       -0.4445142212
 C         -3.5061639883       -0.2527819449       -1.1045298239
 N         -4.5871250427       -0.7990711461       -0.3692676171
 C         -5.2982448350        0.0324880494        0.4855888007
 C         -4.9717205546        1.3897810623        0.5650121448
 C         -5.6485150801        2.2353285957        1.4184714288
 C         -6.6749287267        1.7432165389        2.2040085235
 C         -7.0220455777        0.4091453891        2.1023072567
 C         -6.3581868009       -0.4638813532        1.2507223117
 C         -6.8155067684       -1.9071278160        1.1593146231
 C         -6.6927574552       -2.5563769122        2.5499446201
 C         -8.2813804575       -1.9255660586        0.6891929580
 C         -5.9779606136       -2.7058888866        0.1788898054
 C         -6.2606853455       -4.0502150389       -0.0228812245
 C         -5.5139441085       -4.8370349250       -0.8795810886
 C         -4.4390905808       -4.2778928597       -1.5465922861
 C         -4.1370383773       -2.9445816362       -1.3660787282
 C         -4.9088656434       -2.1406157689       -0.5227936335
 C         -3.6337073500       -0.0215835730       -2.4738074946
 C         -2.5774940456        0.5458178236       -3.1578862658
 C         -1.4213194749        0.8933022486       -2.4852196125
 S         -0.1304081844        1.7830070041       -3.3259885938
 O         -0.0594441486        1.3802582410       -4.7040961325
 O         -0.2983181249        3.1863294208       -3.0546298885
 C          1.2905480102        1.1730696151       -2.4459090087
 C          2.4919472614        1.0204239735       -3.1106508995
 C          3.6049762631        0.5586893040       -2.4364824155
 C          3.4785158415        0.2032318724       -1.0951029955
 N          4.5951613940       -0.2960691673       -0.3779230432
 C          5.0343295360       -1.5920737897       -0.6129514964
 C          4.3757141932       -2.3866432960       -1.5552002762
 C          4.7986840568       -3.6725396069       -1.8183731466
 C          5.8839492344       -4.1935816858       -1.1376511660
 C          6.5189942698       -3.4188581340       -0.1852288106
 C          6.1134564876       -2.1221608186        0.1011311521
 C          6.8318937001       -1.3398664533        1.1843492944
 C          6.6893651904       -2.1021367784        2.5143515929
 C          8.3171259900       -1.2091857522        0.8007329080
 C          6.2557308506        0.0526402856        1.3536490390
 C          6.8019371391        0.9089823433        2.3002773947
 C          6.3427128998        2.2011871416        2.4751292102
 C          5.3242445779        2.6714925003        1.6662271919
 C          4.7645644274        1.8408517564        0.7187597685
 C          5.1988082599        0.5209018286        0.5672946112
 C          2.2588936685        0.3194317893       -0.4443989344
 C          1.1416434953        0.8437973849       -1.0995155355
 H          0.6601052425        0.6109763337        2.2129916831
 H          0.4020087023        2.2897060618        2.6886601552
 H          1.7410150522        1.8898375491        1.6257168120
 H         -1.2542426125        1.7089624823        1.0751938229
 H         -2.2820179530        3.5638339506        0.2421323081
 H         -2.2201727091        5.7994641183       -0.7730176824
 H         -0.0652933943        6.7858484503       -1.4612954602
 H          2.0240479941        5.5184204924       -1.1235169165
 H          1.9647674730        3.2906458677       -0.1166380672
 H         -2.2441731964       -0.1692194107        0.6081156643
 H         -4.1878070285        1.7868748573       -0.0616390988
 H         -5.3757216848        3.2792340848        1.4640178113
 H         -7.2096832758        2.3931037174        2.8794678870
 H         -7.8386273190        0.0426360674        2.7056235926
 H         -7.0315651197       -3.5883106068        2.5279557524
 H         -5.6537245676       -2.5433381467        2.8739379285
 H         -7.2875996035       -2.0190989767        3.2832921801
 H         -8.6536468774       -2.9437491580        0.6187361549
 H         -8.3604292246       -1.4622297042       -0.2924679791
 H         -8.9176872627       -1.3778435684        1.3786904311
 H         -7.0867208724       -4.5033566568        0.5039138742
 H         -5.7638434782       -5.8779993367       -1.0159612451
 H         -3.8309181145       -4.8779507741       -2.2066984767
 H         -3.2893014767       -2.5186216620       -1.8803311399
 H         -4.5528019418       -0.2784538020       -2.9765129417
 H         -2.6305456486        0.7541858274       -4.2147733229
 H          2.5280387132        1.2820349945       -4.1563378822
 H          4.5574935619        0.4549227093       -2.9319819459
 H          3.5209693279       -1.9921454307       -2.0826804280
 H          4.2764665913       -4.2655448662       -2.5540787278
 H          6.2279360966       -5.1967018285       -1.3377793753
 H          7.3540666488       -3.8438385187        0.3506896244
 H          7.1101401281       -3.1006706451        2.4363979018
 H          5.6372648689       -2.1929589890        2.7781678390
 H          7.2007096832       -1.5794805641        3.3179243212
 H          8.7747727702       -2.1870022740        0.6800041227
 H          8.4097551664       -0.6681708124       -0.1391107428
 H          8.8692691593       -0.6675133232        1.5636347661
 H          7.6131209617        0.5628144204        2.9226029534
 H          6.7866466203        2.8378524031        3.2248323481
 H          4.9665880737        3.6854735949        1.7664927151
 H          3.9907936418        2.2216635226        0.0700480947
 H          2.1845891268       -0.0209173808        0.5745414821
