  66
 
 C          7.1029438371       -1.7169956624        0.1957711820
 C          6.1800095823       -0.5269082311       -0.0608727053
 C          6.6561007469        0.2138271695       -1.3176247120
 O          4.8577868600       -1.0028290401       -0.3363524883
 B          3.9548220540       -0.2010358690        0.3076352719
 C          2.4114837725       -0.3107095668        0.1203665350
 C          1.5268377169        0.5216501981        0.8207366381
 C          0.1682269371        0.4333071802        0.6507116656
 C         -0.4008880575       -0.5206202644       -0.2240491708
 C         -1.8095818622       -0.5788180377       -0.4113038642
 C         -2.6112333584        0.6183051844       -0.0916226255
 C         -2.3345174383        1.8247512925       -0.8034589893
 C         -1.7040350895        1.7796845002       -2.0650494762
 C         -1.4055201937        2.9332598063       -2.7528032236
 C         -1.7031150195        4.1761784093       -2.2073781209
 C         -2.2939870769        4.2457091352       -0.9524066560
 C         -2.6073315363        3.0975913522       -0.2597259989
 C         -3.6262789819        0.4953545507        0.9062283925
 C         -4.7801981038        1.3063474465        0.9094152371
 C         -5.7658476020        1.1321224949        1.8552511688
 C         -5.6432381123        0.1536399331        2.8330760607
 C         -4.5233053506       -0.6687846831        2.8378924582
 C         -3.5376016998       -0.5110480988        1.8910310026
 C         -2.5058084611       -1.7354682620       -0.8891221766
 C         -2.0253704682       -3.0420309967       -0.6708065141
 C         -2.7417395521       -4.1394423352       -1.0955572992
 C         -3.9543191755       -3.9810945947       -1.7530125591
 C         -4.4544576101       -2.7022950116       -1.9633559666
 C         -3.7521646958       -1.5995852944       -1.5329763090
 C          0.4937215160       -1.3455384928       -0.9433383577
 C          1.8516274394       -1.2348512550       -0.7722225485
 O          4.5634750329        0.7075056322        1.1300058163
 C          5.9672554190        0.4266797538        1.1733552945
 C          6.7479445055        1.7385768195        1.1160789468
 C          6.2425215983       -0.2603048660        2.5175865794
 H          7.1867188091       -2.3001261560       -0.7182617026
 H          8.0906248943       -1.3685194004        0.4830902598
 H          6.7049541250       -2.3636732653        0.9713433577
 H          6.6212646542       -0.4757817988       -2.1583916385
 H          7.6727368441        0.5739139242       -1.1965380005
 H          5.9930052563        1.0465609689       -1.5401631031
 H          1.9396253178        1.2461762231        1.5079778325
 H         -0.4895139807        1.0798081711        1.2138261041
 H         -1.4794393139        0.8175750051       -2.5020470450
 H         -0.9362981728        2.8708850804       -3.7245603792
 H         -1.4649296086        5.0799995614       -2.7482598508
 H         -2.5024373710        5.2097734930       -0.5099400192
 H         -3.0194894301        3.1691798222        0.7358160724
 H         -4.9142486840        2.0368875910        0.1255056260
 H         -6.6469681358        1.7579561387        1.8294541688
 H         -6.4173523575        0.0246432220        3.5748291700
 H         -4.4248908203       -1.4382992196        3.5905668401
 H         -2.6639688102       -1.1462671823        1.9101166258
 H         -1.1089942635       -3.1821484664       -0.1170519526
 H         -2.3588972494       -5.1324305023       -0.9060912649
 H         -4.5097836791       -4.8450149023       -2.0866137073
 H         -5.4017109465       -2.5712653304       -2.4669746927
 H         -4.1426182256       -0.6080667404       -1.7104627581
 H          0.1014170397       -2.0337099352       -1.6775982521
 H          2.5196512734       -1.8654804637       -1.3414734324
 H          7.8141734659        1.5369615128        1.0709419570
 H          6.4533286865        2.3351267832        0.2585610157
 H          6.5351516651        2.3130924560        2.0145235957
 H          5.9218443108        0.4042523789        3.3171032347
 H          5.6686857888       -1.1806346494        2.5967533479
 H          7.2999212902       -0.4736590870        2.6369268480
