  101
 
 C         -9.6415803341        3.8037123687        3.0932864144
 C        -10.0722223074        3.4806260012        1.8169504277
 C         -9.3577602316        2.5790074933        1.0494899661
 C         -8.1972572959        1.9888308584        1.5448253877
 C         -7.4366880455        1.0274547987        0.7296880004
 C         -8.0964276967        0.0505102232       -0.0087594106
 C         -7.3894543367       -0.8727921378       -0.7724028758
 C         -8.1005745231       -1.9110014298       -1.5362794894
 C         -7.6292473008       -3.2217522106       -1.5610280512
 C         -8.3031534091       -4.1987807749       -2.2707339144
 C         -9.4552370164       -3.8817474559       -2.9714888115
 C         -9.9300642632       -2.5805605027       -2.9577216384
 C         -9.2599762112       -1.6034454322       -2.2446622038
 C         -5.9994154999       -0.8057331532       -0.7953033330
 C         -5.3253068694        0.1676657781       -0.0694701062
 C         -3.8448546990        0.2281595660       -0.1027585600
 C         -3.2014645812        1.1223262761       -0.9675993381
 C         -3.9355895644        1.9818373867       -1.8272925606
 C         -3.3035505992        2.8317803842       -2.6815737366
 C         -1.8952194412        2.8633695147       -2.7382076286
 C         -1.1550468341        2.0552293241       -1.9307570716
 C         -1.7727508273        1.1697136748       -1.0079372456
 C         -1.0237699304        0.3328552289       -0.1668248232
 C          0.4524297854        0.3859334706       -0.2004774174
 C          1.1339141615        1.5188309992        0.2394374945
 C          2.5129158597        1.5606203392        0.2202102898
 C          3.2486752411        0.4651836690       -0.2318987825
 C          4.7015582058        0.5491180594       -0.2231157355
 N          5.3668260153        1.6297978751       -0.5503353726
 C          6.6830691301        1.3107760695       -0.4237989368
 C          7.8119400557        2.1361796763       -0.6977347151
 C          7.7002570689        3.4394091426       -1.1701551580
 C          8.8366992327        4.1839713605       -1.4378395071
 C         10.0897727830        3.6411926608       -1.2329279771
 C         10.2395985667        2.3366629307       -0.7526652541
 C         11.5272871928        1.7697298956       -0.5236996370
 C         11.6596986501        0.5172775245       -0.0325534808
 C         10.5202918311       -0.2866929051        0.2673019842
 C         10.6643457146       -1.5701788306        0.8020718608
 C          9.5558353344       -2.3294879231        1.1117375316
 C          8.2810800769       -1.8456921761        0.8693439810
 C          8.0897777599       -0.5839667990        0.3087816130
 C          9.2238355587        0.2323986617        0.0250729197
 C          9.0875693946        1.5578149765       -0.4782293333
 C          6.8202128772       -0.0073252114        0.0131051313
 N          5.5349971810       -0.4888635909        0.1255603667
 C          5.1005574347       -1.7740142920        0.5159317111
 C          5.4139794722       -2.8833354346       -0.2637483793
 C          4.9548982322       -4.1336208794        0.1092683215
 C          4.1784078508       -4.2800865330        1.2479508491
 C          3.8635740334       -3.1735601384        2.0192522017
 C          4.3225383012       -1.9189565962        1.6581677711
 C          2.5685676699       -0.6582397088       -0.6984111220
 C          1.1883767792       -0.6949223936       -0.6788962803
 C         -1.6694581678       -0.5558848204        0.7062962224
 C         -0.9470183904       -1.3938904870        1.5970936396
 C         -1.5879074137       -2.2535260603        2.4356625197
 C         -2.9959097993       -2.3245165610        2.4448014574
 C         -3.7267219789       -1.5236040629        1.6225617077
 C         -3.0981033317       -0.6138315890        0.7312240557
 C         -6.0462091942        1.0786012305        0.6913527441
 C         -7.7709633787        2.3240322723        2.8279920743
 C         -8.4897711401        3.2214088448        3.5963831732
 H        -10.2014258973        4.5062963860        3.6934453974
 H        -10.9680036409        3.9347749049        1.4176853742
 H         -9.6904396615        2.3426529419        0.0488539118
 H         -9.1732726189       -0.0174702776        0.0437262636
 H         -6.7396608316       -3.4788446206       -1.0038426288
 H         -7.9295558338       -5.2129134074       -2.2758182145
 H         -9.9806446593       -4.6454220320       -3.5264162813
 H        -10.8257138418       -2.3261713319       -3.5065459378
 H         -9.6270974794       -0.5871559352       -2.2507044067
 H         -5.4345575636       -1.5028467071       -1.3973966716
 H         -5.0144922614        1.9441374836       -1.7906881803
 H         -3.8743972840        3.4814767696       -3.3291294797
 H         -1.4082002327        3.5320729156       -3.4332588486
 H         -0.0767696903        2.0739329346       -1.9861818645
 H          0.5724226840        2.3657493137        0.6068120438
 H          3.0432899065        2.4371396326        0.5604577872
 H          6.7133238846        3.8477558922       -1.3253488256
 H          8.7413832170        5.1943990969       -1.8087522366
 H         10.9749654765        4.2256627564       -1.4406459880
 H         12.3965272659        2.3725061700       -0.7464041876
 H         12.6379404121        0.0945878961        0.1490132932
 H         11.6576062519       -1.9559798985        0.9815517879
 H          9.6759901862       -3.3116678655        1.5457199548
 H          7.4295430803       -2.4537771073        1.1293369834
 H          6.0151544078       -2.7563041545       -1.1527038161
 H          5.2007735457       -4.9935469912       -0.4955083504
 H          3.8190311758       -5.2571462765        1.5331376153
 H          3.2595185097       -3.2845905811        2.9070149085
 H          4.0824662769       -1.0491645770        2.2520641528
 H          3.1159886169       -1.4996656568       -1.0956991505
 H          0.6694291917       -1.5682371179       -1.0470512082
 H          0.1311563307       -1.3336475544        1.6016214042
 H         -1.0226317595       -2.8850428401        3.1058140857
 H         -3.4877409094       -3.0128658192        3.1169453619
 H         -4.8061409530       -1.5639078583        1.6368693256
 H         -5.5184684039        1.8422764953        1.2443730782
 H         -6.8811440019        1.8620073134        3.2312364397
 H         -8.1509657345        3.4669292612        4.5928991775
