  74
 
 N          0.0023627898        1.0080315337        0.5041861050
 C          0.0005229869       -0.1511949375        0.5686254522
 C         -0.0017277229       -1.5297144513        0.6369891006
 C         -1.2374453258       -2.2592480316        0.7668779088
 C         -2.5195794524       -1.6297366727        0.5107226772
 C         -2.6643422764       -0.6894395284       -0.5187189103
 C         -3.8668829612       -0.0592016982       -0.7394477819
 C         -4.9675220035       -0.3525797091        0.0641216484
 N         -6.1954833917        0.3231099297       -0.1391555297
 C         -6.2847443389        1.6941927138        0.0716910051
 C         -5.2022440136        2.4509906092        0.5138748975
 C         -5.3302020522        3.8144083037        0.7108536797
 C         -6.5390662155        4.4476683165        0.4811726782
 C         -7.6338989696        3.7066611699        0.0674362007
 C         -7.5146403768        2.3419569954       -0.1309862751
 O         -8.6424095015        1.6660139799       -0.5126403573
 C         -8.5373880500        0.3176077621       -0.7149341827
 C         -9.6808333308       -0.3536398174       -1.1122083444
 C         -9.6379154001       -1.7159503200       -1.3606863823
 C         -8.4424276168       -2.3995751817       -1.2264406485
 C         -7.2954895404       -1.7363946466       -0.8277401018
 C         -7.3253278046       -0.3727141887       -0.5454904411
 C         -4.8483742018       -1.3047376848        1.0753446186
 C         -3.6438632631       -1.9339806237        1.2913757208
 C         -1.1560974159       -3.5888488968        1.1213488122
 N         -0.0058818368       -4.2350245392        1.2837861972
 C          1.1463407482       -3.5924947932        1.1207875894
 C          1.2316844370       -2.2631579224        0.7663484149
 C          2.5157137743       -1.6375739499        0.5098811832
 C          2.6632097052       -0.6978834834       -0.5196999055
 C          3.8676331423       -0.0712845599       -0.7405898519
 C          4.9674187203       -0.3678485864        0.0629638784
 N          6.1973938336        0.3041326474       -0.1404548413
 C          6.2908003433        1.6749476555        0.0703186459
 C          5.2106254275        2.4350164839        0.5125710261
 C          5.3427041055        3.7980539775        0.7094597370
 C          6.5534403023        4.4276640916        0.4796081925
 C          7.6459989284        3.6833479160        0.0658054577
 C          7.5226208223        2.3189963373       -0.1325154035
 O          8.6483156439        1.6396383470       -0.5142294894
 C          8.5392095331        0.2915487126       -0.7164685892
 C          9.6805832980       -0.3831563440       -1.1138419795
 C          9.6335292959       -1.7453383142       -1.3622743312
 C          8.4360014748       -2.4253529602       -1.2278719628
 C          7.2911122731       -1.7587061932       -0.8290622162
 C          7.3250915366       -0.3951118890       -0.5468740258
 C          4.8454869316       -1.3194962443        1.0743229956
 C          3.6390990029       -1.9450924017        1.2905088210
 H         -1.8235591102       -0.4635019346       -1.1556824470
 H         -3.9678494985        0.6619988315       -1.5373518034
 H         -4.2583392410        1.9675271805        0.7077758008
 H         -4.4754026494        4.3786812236        1.0488998979
 H         -6.6379940491        5.5109887506        0.6311152090
 H         -8.5942143854        4.1660046332       -0.1037494044
 H        -10.5920665704        0.2114331231       -1.2250649807
 H        -10.5331470927       -2.2329132036       -1.6675145583
 H         -8.3948035690       -3.4568540747       -1.4359577375
 H         -6.3644141769       -2.2730747871       -0.7398239242
 H         -5.7016572105       -1.5246417830        1.7009749556
 H         -3.5524810418       -2.6443237001        2.0992654101
 H         -2.0464554320       -4.1951788999        1.2160309479
 H          2.0348160440       -4.2016442885        1.2150219411
 H          1.8230549143       -0.4694873376       -1.1566171512
 H          3.9707084605        0.6495315289       -1.5385716172
 H          4.2652904728        1.9544032737        0.7065980949
 H          4.4896408805        4.3649127293        1.0475704336
 H          6.6555781081        5.4906929627        0.6294672008
 H          8.6076709388        4.1397961484       -0.1055130148
 H         10.5935060429        0.1791607889       -1.2268059999
 H         10.5271687365       -2.2650103018       -1.6691657865
 H          8.3851718805       -3.4824956057       -1.4373237695
 H          6.3584361333       -2.2925787973       -0.7410143491
 H          5.6981460516       -1.5418830878        1.6999247893
 H          3.5456129046       -2.6550619876        2.0984864311
