  86
 
 C         12.5178276656        1.0727384244       -0.6250899802
 C         11.9249133308       -0.2518867110       -0.1218491467
 C         12.5706170178       -0.5823059874        1.2271533861
 C         12.2626010774       -1.3822155889       -1.1053906819
 C         10.4127681890       -0.1116402687       -0.0290520354
 C          9.6805760192        0.1978479639       -1.1735620684
 C          8.3077691935        0.3453104044       -1.1387775408
 C          7.6308331518        0.1741979739        0.0572121100
 N          6.2035175411        0.3230266633        0.1087974352
 C          5.7142336931        1.4480488256        0.7518722901
 O          6.4796861082        2.2790448603        1.2128405205
 C          4.2540997035        1.5680985083        0.8350013496
 C          3.7045960753        2.6475138388        1.4996162240
 C          2.3211666678        2.7657600430        1.6087534135
 C          1.4949280732        1.8246379693        1.0439615304
 C          2.0080562727        0.7220887242        0.3324083657
 C          1.1783580950       -0.2750740401       -0.2777139353
 C         -0.2618009279       -0.1549426254       -0.2576631583
 C         -1.1214350370       -1.1859856781       -0.3650108151
 C         -2.5645326047       -1.1092418027       -0.3463121731
 C         -3.2994466849       -2.3065004865       -0.5472496164
 C         -4.6612270097       -2.3175335416       -0.5355820558
 C         -5.3947088696       -1.1295994474       -0.3115232702
 C         -6.7968246754       -1.1112790699       -0.2863908372
 C         -7.4909618404        0.0597785878       -0.0572320322
 N         -8.8828288009        0.0748254999       -0.0074099435
 C         -9.5854658476       -1.0310264444        0.4949658465
 C        -10.7712234988       -1.4464775934       -0.1095301372
 C        -11.4668308932       -2.5290965932        0.3946136202
 C        -10.9909992889       -3.2159693550        1.4998057866
 C         -9.8121359914       -2.8075806543        2.1031668258
 C         -9.1136386442       -1.7219320507        1.6108067608
 C         -9.5956297873        1.1867664679       -0.4776633658
 C         -9.1711723252        1.8694861257       -1.6174694114
 C         -9.8748112691        2.9684330737       -2.0723480032
 C        -11.0132473015        3.3965042967       -1.4086233430
 C        -11.4435982683        2.7162847285       -0.2804729469
 C        -10.7415928028        1.6220726802        0.1875096228
 C         -6.7683461482        1.2605915523        0.1470614285
 C         -5.4066319062        1.2669658294        0.1183743080
 C         -4.6732617797        0.0791746541       -0.1105930386
 C         -3.2718023153        0.0612835140       -0.1341001679
 C          1.7915476443       -1.3478496070       -0.9155927505
 C          3.1695560172       -1.4755659584       -0.9772666940
 C          3.9940346215       -0.5188412109       -0.4079442634
 C          3.4210080355        0.5901745208        0.2490957855
 C          5.4442189790       -0.6784236717       -0.4841400160
 O          5.9906713556       -1.6300944328       -1.0187959720
 C          8.3333899874       -0.1412450736        1.2060756308
 C          9.7100454599       -0.2772688068        1.1586546854
 H         13.6025070095        1.0025524497       -0.6691402597
 H         12.2499898138        1.8841483960        0.0488054179
 H         12.1518236728        1.3200091872       -1.6175039155
 H         13.6479187833       -0.6676039091        1.1002337120
 H         12.3791232764        0.2029432415        1.9547918252
 H         12.2024160963       -1.5288271865        1.6159299538
 H         13.3410106685       -1.5098594710       -1.1703843697
 H         11.8835018058       -1.1687866457       -2.1007705597
 H         11.8228334777       -2.3184666466       -0.7674781699
 H         10.1830137777        0.3332287457       -2.1188691702
 H          7.7584068394        0.5875417455       -2.0370997575
 H          4.3674815352        3.3806076812        1.9346701936
 H          1.9004401084        3.6024359222        2.1453297691
 H          0.4293554622        1.9341081995        1.1640073168
 H         -0.6563663417        0.8420510533       -0.1417915512
 H         -0.7281134537       -2.1907059230       -0.4494153458
 H         -2.7550072198       -3.2252028492       -0.7152647666
 H         -5.2044011894       -3.2387387961       -0.6927636641
 H         -7.3351707703       -2.0340611971       -0.4490462770
 H        -11.1407888858       -0.9168263282       -0.9756154019
 H        -12.3829682762       -2.8426945003       -0.0843586173
 H        -11.5354327528       -4.0632279677        1.8888943279
 H         -9.4373308753       -3.3327895796        2.9696554733
 H         -8.1996722958       -1.3999022555        2.0884533914
 H         -8.2913025511        1.5296205349       -2.1442825785
 H         -9.5363459860        3.4879498129       -2.9570069908
 H        -11.5625628396        4.2533154039       -1.7688259025
 H        -12.3284658440        3.0450850661        0.2448080792
 H        -11.0740021574        1.0983751960        1.0720599090
 H         -7.3166847074        2.1705948193        0.3418692056
 H         -4.8662266963        2.1878251101        0.2850506050
 H         -2.7538956646        0.9943808086        0.0282668536
 H          1.1828216156       -2.0920606958       -1.4041771798
 H          3.6273117933       -2.3154075436       -1.4792778345
 H          7.8038792471       -0.2738747884        2.1387709732
 H         10.2240350665       -0.5188191206        2.0740747799
