  92
 
 C          5.3956244196        4.7544797561       -3.6744811970
 C          4.0200759954        4.7598100600       -3.5033533903
 C          3.4621930546        4.3643392219       -2.3032152688
 C          4.2802557822        3.9487716979       -1.2508359460
 N          3.7190892612        3.5421862000       -0.0368325955
 C          4.3674310833        3.8228816314        1.1718249083
 C          4.3604591561        2.8852648030        2.2057637255
 C          4.9993026925        3.1625591254        3.3986841018
 C          5.6551721170        4.3702731326        3.5794027262
 C          5.6659483618        5.3039645975        2.5549212627
 C          5.0263181884        5.0385492655        1.3594444831
 C          2.5036819862        2.8510272833       -0.0208692017
 C          1.5541116997        3.1121321646        0.9688910866
 C          0.3607890870        2.4215852758        0.9903518324
 C          0.0851167607        1.4364993835        0.0426435293
 C         -1.1812842587        0.6906534966        0.0746891709
 C         -2.3781993595        1.3890863918        0.1580129804
 C         -3.6120611964        0.7444447201        0.1150917953
 N         -4.7648598647        1.4140254842        0.1901283809
 C         -5.9301716698        0.7831448811        0.1333826181
 C         -5.9545650257       -0.6563031647       -0.0071054486
 N         -4.8112538908       -1.3243845997       -0.0828880721
 C         -3.6361788947       -0.6918819288       -0.0280595192
 C         -2.4242938786       -1.3747480239       -0.0934801713
 C         -1.2041828327       -0.7141052026       -0.0315503737
 C          0.0399937911       -1.4938186222       -0.0219703149
 C          1.0270184195       -1.2458521196        0.9337559703
 C          2.2016504644       -1.9636699182        0.9432828331
 C          2.4366908882       -2.9517631746       -0.0165765858
 N          3.6457484772       -3.6489701252       -0.0310860864
 C          4.8326819880       -2.9902090110        0.3120616993
 C          5.0378731790       -1.6622972453       -0.0665091664
 C          6.2063684227       -1.0129584417        0.2805159323
 C          7.1892509394       -1.6741408568        1.0004140584
 C          6.9931033332       -2.9945161095        1.3735695217
 C          5.8250731027       -3.6513890229        1.0369457304
 C          3.6761888908       -5.0006364208       -0.3930259445
 C          2.6485814613       -5.8604045013       -0.0022368695
 C          2.6808385572       -7.1923694718       -0.3670553709
 C          3.7351252681       -7.6892883436       -1.1172981454
 C          4.7603776129       -6.8403443873       -1.5039310327
 C          4.7347923625       -5.5054349158       -1.1495634173
 C          1.4414065544       -3.2222920820       -0.9586476877
 C          0.2600437682       -2.5112781461       -0.9501263628
 C         -7.2068802736       -1.2836731274       -0.0573408106
 S         -7.4488488991       -3.0021425704       -0.2203074373
 C         -9.1657830179       -2.7774329101       -0.1840791865
 C         -9.5370753105       -1.4828270121       -0.0573683424
 C         -8.4281036092       -0.5989408361        0.0184810311
 C         -8.4040025603        0.8073101502        0.1527836796
 C         -9.4816113194        1.7273126885        0.2484181019
 C         -9.0654760005        3.0089400682        0.3679418174
 S         -7.3416152876        3.1770005254        0.3733867262
 C         -7.1598228761        1.4514257805        0.2064779530
 C          1.0299862850        1.1929941756       -0.9551969621
 C          2.2180382935        1.8897047005       -0.9924381555
 C          5.6649590276        3.9446397549       -1.4290933366
 C          6.2127849562        4.3475276191       -2.6314523813
 H          5.8272898832        5.0667725329       -4.6133435395
 H          3.3757700236        5.0829950321       -4.3078746260
 H          2.3905827164        4.3819749872       -2.1685256955
 H          3.8581965962        1.9399132858        2.0617047910
 H          4.9914380404        2.4272760356        4.1898425429
 H          6.1542728115        4.5828072554        4.5127332457
 H          6.1681507927        6.2505314378        2.6906680196
 H          5.0245543000        5.7722908759        0.5668272617
 H          1.7577004240        3.8657671928        1.7155099950
 H         -0.3656763016        2.6326698252        1.7617050138
 H         -2.3777627982        2.4667640999        0.2263119722
 H         -2.4588021292       -2.4518461265       -0.1617422464
 H          0.8551992254       -0.4951639642        1.6902705540
 H          2.9472997029       -1.7709694682        1.7003089203
 H          4.2778061599       -1.1509711380       -0.6381013552
 H          6.3545453143        0.0130145471       -0.0221209596
 H          8.1017599294       -1.1637901705        1.2688964620
 H          7.7516961657       -3.5155057368        1.9389700116
 H          5.6694329579       -4.6765785506        1.3393544510
 H          1.8325482191       -5.4774189958        0.5929159055
 H          1.8809506310       -7.8482871215       -0.0562345680
 H          3.7573491500       -8.7311196976       -1.3989963489
 H          5.5823582511       -7.2186623500       -2.0936831490
 H          5.5285576270       -4.8428301077       -1.4618856936
 H          1.6085663470       -3.9826750042       -1.7072738430
 H         -0.4926548464       -2.7181797341       -1.6969785854
 H         -9.7971761826       -3.6406968670       -0.2615694216
 H        -10.5606044161       -1.1564979321       -0.0177207611
 H        -10.5159182414        1.4350687404        0.2271962972
 H         -9.6666162994        3.8924860187        0.4565618307
 H          0.8218490127        0.4519138541       -1.7123529422
 H          2.9403227934        1.6886412983       -1.7699144733
 H          6.3044379167        3.6201266573       -0.6214692711
 H          7.2854840572        4.3358160614       -2.7579068821
