  85
 
 C         -2.3920666410       -8.1019924869        2.5788508257
 O         -2.7441072796       -6.7360344698        2.6303138765
 C         -1.9547202000       -5.8295216307        1.9948675360
 C         -2.3772897795       -4.4893445146        2.1166344961
 C         -1.6902086293       -3.4587887891        1.5192614558
 C         -0.5541948454       -3.7668580073        0.7755279580
 C         -0.0979054052       -5.1091219239        0.6799337273
 C         -0.8043783962       -6.1429904798        1.2818091546
 C          1.1124312317       -5.0728119649       -0.0851143642
 C          2.0067263588       -6.0459247000       -0.5142493376
 C          3.0858016729       -5.6620706075       -1.2885792644
 C          3.2731176262       -4.3284038288       -1.6498906450
 C          2.3987430009       -3.3413819087       -1.2296127759
 C          1.3291003787       -3.7124750875       -0.4293055054
 N          0.3113790698       -2.9377171922        0.0993682284
 C          0.1882919521       -1.5555695857       -0.0221601719
 C         -1.0555299263       -0.9727950624       -0.3548695670
 C         -1.2002888549        0.3844896490       -0.4341978211
 N         -2.4301339704        0.9499769656       -0.8065271716
 C         -3.1123823609        0.6941546949       -1.9788175220
 C         -2.7951768044       -0.1773236072       -3.0105873279
 C         -3.6549807953       -0.2359903863       -4.0927356192
 C         -4.8000790597        0.5546527498       -4.1527966157
 C         -5.1119583466        1.4377519915       -3.1344773122
 C         -4.2642047497        1.5156454050       -2.0385206684
 C         -4.2611861630        2.3056208801       -0.8372889104
 C         -5.1260828904        3.2675448235       -0.3358010835
 C         -4.8365822634        3.8341584206        0.9002747478
 O         -5.5892403084        4.7894004618        1.5094376850
 C         -6.7362319507        5.2780918767        0.8467865407
 C         -3.7049029069        3.4196477796        1.6276380765
 C         -2.8420852908        2.4680482024        1.1397074472
 C         -3.1091424191        1.9211601045       -0.1113632957
 C         -0.0869229892        1.2670526042       -0.1857469931
 C         -0.1715111289        2.6176521650       -0.4341401923
 N         -0.2393106848        3.7603196062       -0.6500650845
 C          1.1634843225        0.6486832614        0.1818118806
 N          2.2634068670        1.4750054922        0.4576267358
 C          2.2989812622        2.4802820068        1.4009726533
 C          1.3298918370        2.8614246860        2.3169149138
 C          1.6265195500        3.9032848403        3.1757555065
 C          2.8633257720        4.5424937721        3.1384940054
 C          3.8438256674        4.1492784112        2.2451970105
 C          3.5674122854        3.1082743288        1.3708013430
 C          4.3263252543        2.4380170875        0.3501888719
 C          5.6137001261        2.6104120434       -0.1389829957
 C          6.0437502046        1.7851118245       -1.1715885927
 O          7.2778425363        1.8378867909       -1.7431131922
 C          8.2057990312        2.7915849504       -1.2719541861
 C          5.1826260922        0.8122133882       -1.7126328626
 C          3.9057576408        0.6332664318       -1.2346137787
 C          3.4786535804        1.4394722020       -0.1850792761
 C          1.2900948933       -0.7117720591        0.2416581442
 H         -3.1615622308       -8.6230640994        3.1459967760
 H         -1.4162651460       -8.2789169689        3.0409425331
 H         -2.3843552348       -8.4725933710        1.5494984694
 H         -3.2607653563       -4.2964970389        2.7040232360
 H         -2.0194505497       -2.4391558126        1.6436219457
 H         -0.4487308137       -7.1559438814        1.1899100132
 H          1.8562416603       -7.0821604534       -0.2517463102
 H          3.7913281135       -6.4050157605       -1.6299849069
 H          4.1132314532       -4.0600552143       -2.2727844540
 H          2.5418350483       -2.3156461535       -1.5299487070
 H         -1.8985376109       -1.6118304355       -0.5696755856
 H         -1.9017852393       -0.7822004015       -2.9750507728
 H         -3.4311756672       -0.9067655028       -4.9088889192
 H         -5.4480431441        0.4802851966       -5.0133624621
 H         -5.9938383415        2.0574941481       -3.1913268877
 H         -5.9948038455        3.5545376878       -0.9049757161
 H         -6.4760600628        5.7378281950       -0.1111869057
 H         -7.1553071372        6.0330707359        1.5098250785
 H         -7.4718736769        4.4841873139        0.6870207828
 H         -3.5343816767        3.8780462003        2.5888675300
 H         -1.9833865752        2.1581577265        1.7137226626
 H          0.3741728710        2.3624487527        2.3575279847
 H          0.8846561585        4.2252660772        3.8912699156
 H          3.0582468708        5.3542027795        3.8233811419
 H          4.8047306796        4.6408082451        2.2283440320
 H          6.2456498247        3.3759177072        0.2798813359
 H          8.4388322345        2.6318553952       -0.2150293759
 H          7.8372082162        3.8114002145       -1.4171643965
 H          9.1043500629        2.6424806554       -1.8683421156
 H          5.5576731086        0.2103928524       -2.5252325178
 H          3.2493713293       -0.1015162559       -1.6731909958
 H          2.2294970113       -1.1455649253        0.5497859295
