108

C     -1.724647    7.071266    0.340898
C     -0.603909    5.999481    0.311785
C      0.783169    6.690552    0.366837
C     -0.705719    5.233089   -1.014297
C     -0.595943    5.933513   -2.241769
C     -0.681653    5.284083   -3.470685
C     -0.876755    3.915085   -3.504191
C     -0.984623    3.206018   -2.307362
C     -0.903197    3.840702   -1.044306
N     -1.014052    3.082821    0.174196
C     -1.170351    1.657167    0.105963
C     -0.032747    0.826509    0.139493
C     -0.129636   -0.574797    0.056628
C      1.057137   -1.467652    0.092104
C      2.360554   -1.023775   -0.033971
C      3.370047   -1.967675    0.033596
C      4.800424   -1.612020   -0.057412
C      5.711507   -2.457430   -0.712355
C      7.072999   -2.138046   -0.798463
C      7.578758   -0.962010   -0.227087
C      9.011303   -0.630069   -0.304252
C      9.990857   -1.551110    0.104097
C     11.350593   -1.234979    0.036830
C     11.754571    0.009138   -0.440828
C     10.801019    0.936597   -0.851891
C      9.441709    0.618997   -0.783070
C      6.674843   -0.116587    0.431923
C      5.312860   -0.436474    0.517071
N      3.106317   -3.279773    0.186294
C      1.818392   -3.641739    0.294892
C      1.512621   -5.078210    0.454465
C      0.186223   -5.541595    0.559389
C     -0.105356   -6.902651    0.700698
C      0.925864   -7.836071    0.742291
C      2.246680   -7.409767    0.644880
C      2.534043   -6.047695    0.503408
N      0.787998   -2.779119    0.258624
C     -1.429322   -1.110794   -0.053781
C     -2.578277   -0.298900   -0.079745
N     -3.878928   -0.895957   -0.187582
C     -4.457991   -1.103612   -1.488433
C     -3.766979   -0.719822   -2.663080
C     -4.303972   -0.907776   -3.937273
C     -5.551825   -1.488935   -4.072497
C     -6.252296   -1.878396   -2.933438
C     -5.726140   -1.695635   -1.629834
C     -6.539703   -2.147159   -0.409142
C     -7.895407   -1.393459   -0.422657
C     -6.787078   -3.673296   -0.529671
C     -5.853047   -1.880384    0.937836
C     -6.503557   -2.244618    2.143622
C     -5.920381   -2.027320    3.389130
C     -4.669596   -1.440926    3.461456
C     -4.011658   -1.074792    2.286801
C     -4.580982   -1.283310    1.007474
C     -2.442586    1.089143    0.000124
C     -0.948466    3.728392    1.458293
C     -1.083221    2.984284    2.655039
C     -1.017985    3.583631    3.913267
C     -0.816761    4.948902    4.010016
C     -0.685598    5.705702    2.848306
C     -0.749871    5.117658    1.559999
H     -2.716231    6.602890    0.311779
H     -1.664710    7.762718   -0.506194
H     -1.683461    7.693044    1.241929
H      1.592437    5.949416    0.350596
H      0.945499    7.368907   -0.477972
H      0.912849    7.294429    1.271894
H     -0.440576    7.010319   -2.252226
H     -0.595933    5.849258   -4.394771
H     -0.947660    3.393369   -4.454430
H     -1.138413    2.133154   -2.384886
H      0.930367    1.319889    0.241919
H      2.598880    0.016554   -0.201513
H      5.360940   -3.382799   -1.168001
H      7.737008   -2.820660   -1.325766
H      9.697172   -2.524561    0.492235
H     12.091721   -1.960966    0.360800
H     12.811535    0.256039   -0.493158
H     11.113391    1.907192   -1.228290
H      8.714139    1.354550   -1.119630
H      7.030365    0.795032    0.909480
H      4.662328    0.241112    1.066828
H     -0.641841   -4.834303    0.529853
H     -1.139651   -7.227787    0.777473
H      0.700210   -8.894154    0.850936
H      3.057548   -8.133133    0.678903
H      3.576722   -5.742007    0.430280
H     -1.568560   -2.189755   -0.121478
H     -2.783090   -0.262639   -2.606191
H     -3.742453   -0.600278   -4.814911
H     -5.982333   -1.643320   -5.057967
H     -7.229133   -2.335244   -3.076283
H     -8.549878   -1.696855    0.401807
H     -8.464567   -1.574102   -1.341142
H     -7.744111   -0.309542   -0.339122
H     -7.406500   -4.060904    0.286684
H     -7.305003   -3.941299   -1.457198
H     -5.839719   -4.227984   -0.513034
H     -7.486932   -2.709660    2.123833
H     -6.443439   -2.317265    4.295915
H     -4.199356   -1.267431    4.425149
H     -3.030843   -0.619400    2.394421
H     -3.324236    1.724674   -0.021784
H     -1.249545    1.910441    2.630022
H     -1.128130    2.979788    4.809383
H     -0.765894    5.427975    4.984113
H     -0.531186    6.776901    2.961063
