53

C      9.161261    0.028441   -0.208164
C      8.472056   -1.165187   -0.006312
C      7.075553   -1.170259    0.020340
C      6.349580    0.018775   -0.151558
C      4.886485    0.016595   -0.125657
C      4.134383    0.188436   -1.298614
C      2.741856    0.185882   -1.277430
C      2.026556    0.014280   -0.076715
C      0.556392    0.008166   -0.054470
C     -0.171775   -0.855963   -0.889625
C     -1.571103   -0.862049   -0.885383
C     -2.272065    0.006823   -0.043913
N     -3.699316    0.005926   -0.038657
C     -4.506358   -1.134831   -0.040895
C     -4.189609   -2.508299    0.030585
C     -5.228970   -3.443257    0.027667
C     -6.554097   -3.033263   -0.024288
C     -6.868945   -1.672857   -0.056294
C     -5.836525   -0.708365   -0.050605
C     -5.837598    0.716950   -0.039900
C     -6.871808    1.679563   -0.041127
C     -6.559365    3.040597   -0.066371
C     -5.234623    3.453183   -0.104323
C     -4.193445    2.520167   -0.101180
C     -4.507930    1.145753   -0.037713
C     -1.565456    0.875617    0.792382
C     -0.166081    0.872094    0.784738
C      2.762839   -0.157287    1.127263
N      2.233979   -0.346112    2.407515
N      3.171008   -0.464337    3.328082
S      4.710223   -0.363618    2.703138
C      4.164141   -0.150040    1.074611
C      7.059542    1.211541   -0.358795
C      8.456085    1.216699   -0.385197
H     10.248119    0.032463   -0.228329
H      9.020905   -2.093667    0.129343
H      6.554648   -2.113614    0.172952
H      4.647086    0.323204   -2.250842
H      2.202428    0.330628   -2.212678
H      0.349403   -1.542630   -1.554360
H     -2.091322   -1.523689   -1.573964
H     -3.162886   -2.852651    0.108367
H     -4.994256   -4.504101    0.077608
H     -7.351975   -3.771379   -0.022920
H     -7.908813   -1.359007   -0.073977
H     -7.911174    1.363672   -0.031496
H     -7.358631    3.777193   -0.070758
H     -5.001546    4.514748   -0.145548
H     -3.166911    2.867502   -0.164509
H     -2.079443    1.531200    1.491499
H      0.359396    1.551516    1.454390
H      6.525493    2.149960   -0.495127
H      8.992610    2.148888   -0.542784
