78
 xtb: 6.7.1 (edcfbbe)
C           10.07845630248111       -3.33621058193808        1.44922816903103
C            8.70904033367719       -3.39303797595937        1.25950206869240
C            8.02375730661078       -2.30043140572443        0.75515710969138
C            8.69912387128232       -1.12540897149625        0.43665291342883
C           10.09226158374290       -1.08544657823855        0.61278710675211
C           10.77019216048860       -2.18081204328770        1.11925697435058
O           10.83724889131674        0.01908086163403        0.29367216516752
C           10.17329649730469        1.11133377603974       -0.21028897857670
C           10.93224982141726        2.22481832228572       -0.52547524520002
C           10.32074411728381        3.36843449543159       -1.01693182179313
C            8.94703015075088        3.39527457469680       -1.18056363262655
C            8.18131294968331        2.28510332837374       -0.86723799271898
C            8.78010096923745        1.12183655568246       -0.39014876204944
N            8.04291028493186       -0.01091536051313       -0.06948768488525
C            6.63138308073992       -0.01632636851118       -0.22268524815371
C            6.06481931427236       -0.05717277566876       -1.49383899764717
C            4.69536761809639       -0.05421170312068       -1.64610322447961
C            3.84402283616531       -0.01109821185586       -0.53200338095452
C            2.40008595956390       -0.00026005483778       -0.63154450997159
C            1.68899970969706        0.06355783682866       -1.84071658692754
C            0.31701791281069        0.07005068179535       -1.84642589119990
C           -0.39798052978490        0.00847001980748       -0.62475361524077
N           -1.70967565578444        0.01516821797447       -0.57809538848303
C           -2.39491251797529       -0.04236319802994        0.58225216598464
C           -3.83894135859065       -0.03721511079658        0.48599432697756
C           -4.68687259396682       -0.09780049314158        1.60205961975511
C           -6.05645353457384       -0.08500406659996        1.45517479251443
C           -6.62781457471744       -0.01118180084716        0.18761233531149
N           -8.04047917059012        0.00772556727864        0.04504539022547
C           -8.71390615647965       -1.10043657231158       -0.45182885678120
C           -8.04916739209781       -2.26662122718040       -0.82131833548378
C           -8.75221571535853       -3.35323954495946       -1.31373488478609
C          -10.12888602895306       -3.29913818539239       -1.43966896619001
C          -10.80916996438091       -2.15190800135275       -1.06032830122243
C          -10.11338406367615       -1.06234457959108       -0.56640154679822
O          -10.84817282785261        0.03223827356784       -0.18962819665895
C          -10.16588960220844        1.12168377692654        0.29269485255464
C          -10.91309898500476        2.22856378589162        0.65594069626335
C          -10.28349586486532        3.36728180130158        1.13520092941995
C           -8.90410547356945        3.39610740322717        1.23807379750049
C           -8.15019263629200        2.29191570621050        0.87785295161752
C           -8.76651569535695        1.13353643840981        0.41233302897348
C           -5.80367355314446        0.04682303431404       -0.93479891716215
C           -4.43695946154345        0.03196321537041       -0.78448950132465
C           -1.68284550805249       -0.10006429203455        1.79141933345066
C           -0.31118649461734       -0.10401237743095        1.79687723514299
C            0.40293834558160       -0.05095935158892        0.57440143930087
N            1.71457333573357       -0.04659404312773        0.52719193969872
C            4.43711377056379        0.01948553737801        0.74220673109101
C            5.80301212715299        0.02016550400566        0.89778493776730
H           10.63499917012951       -4.19869067236105        1.78069467003579
H            8.18092450276379       -4.30211842674706        1.46676447866561
H            6.96469170390930       -2.35461696608174        0.60215492297402
H           11.85356934392780       -2.11692627972837        1.18595205616141
H           11.99471921671605        2.18668522039296       -0.38529024961113
H           10.90376992802309        4.25253357457795       -1.23115457975858
H            8.44175408968512        4.30824612312258       -1.48879360083386
H            7.09861642314228        2.33099142711341       -0.93471106922983
H            6.70990277988381       -0.06337266386539       -2.35037889602269
H            4.28827750359469       -0.06915821280509       -2.63483190723241
H            2.22480965311860        0.10706385164511       -2.76801035741651
H           -0.24093932741049        0.11224474582620       -2.76195644971241
H           -4.27990241141684       -0.14035047799119        2.60056550958044
H           -6.70124296118591       -0.11019642197813        2.32382983760286
H           -6.98362099724196       -2.32593152569278       -0.69122283161512
H           -8.22635285869840       -4.26090047923723       -1.54789135012830
H          -10.68933235303392       -4.15473056251390       -1.78003399044335
H          -11.88854666598010       -2.08253207411434       -1.11694740461864
H          -11.97985467380841        2.19958383663379        0.51872152410671
H          -10.86165841633709        4.25223008725578        1.36073266320324
H           -8.39302542669448        4.30296929954037        1.54473524444048
H           -7.06915531814733        2.33153017691591        0.92402039471481
H           -6.24592251680458        0.08367968475419       -1.91947359746784
H           -3.78780817251746        0.05178020009126       -1.64463532154673
H           -2.21965320001486       -0.16483419470876        2.73134678071722
H            0.24537971969068       -0.17228943828311        2.72413430857043
H            3.78483003131817        0.01985319447382        1.61217175569193
H            6.24197085161120        0.02694655220358        1.89513785991385
