66
 xtb: 6.7.1 (edcfbbe)
C            0.60346731065507        0.00386929332303       -0.00392274331152
C           -0.60499340525167        0.00349462677237       -0.00441505384731
C           -2.01554775749159        0.00267824641871       -0.00405394135981
C           -2.72022001457644       -0.29776882038124        1.16495510365361
C           -4.09961081888694       -0.30384490985586        1.16240064163398
C           -4.79930672826493        0.00031400439195       -0.00274363489795
N           -6.21446800917305       -0.00122262437610       -0.00129731548925
C           -6.92287562685294        0.93179952029458        0.75769197984076
C           -6.28868337429365        1.92632384874230        1.49287792143749
C           -7.02223398899134        2.83872569349400        2.23699195929578
C           -8.40095747381899        2.77967384377677        2.25214611531928
C           -9.05115337927437        1.80981009496276        1.50131909604185
C           -8.32420121080116        0.89986835131741        0.75683472594276
O           -9.04109037262416       -0.01444306169878        0.01772963564477
C           -8.32548194123486       -0.91696745574320       -0.73714631466515
C           -9.05401824608924       -1.82918115067970       -1.47729851462800
C           -8.40527303148260       -2.78941533455770       -2.24186717949853
C           -7.02602183109794       -2.83636924679893       -2.24504561498348
C           -6.29087938844677       -1.92161969840275       -1.50534508858320
C           -6.92398161755346       -0.93685550517680       -0.75598738636042
C           -4.10129560447529        0.30612596459991       -1.16843298975837
C           -2.72181836745627        0.30228879591898       -1.17226344938926
C            2.01411525334119        0.00391918524939       -0.00320756577897
C            2.71943537108599        0.12725331242521        1.19729027740970
C            4.09882889209581        0.13295631459651        1.19576813858597
C            4.79913902986640        0.00317603292590       -0.00142579597853
N            6.21389371628432        0.00249220016451       -0.00048893907871
C            6.92251078483816       -1.02401920348345        0.62676346305001
C            6.28856933736675       -2.10317998632333        1.23136153231704
C            7.02206762861679       -3.10634275050207        1.84761222827486
C            8.40107351449939       -3.05439076886229        1.86220039868701
C            9.05100780226796       -1.99846164423432        1.23795813517380
C            8.32398008060327       -0.99759313562302        0.62109734739867
O            9.04117240433142       -0.00011291646356       -0.00051845651879
C            8.32571864831470        0.99896817459251       -0.62203249813862
C            9.05445102648486        1.99865875572893       -1.23879707657999
C            8.40630571028664        3.05578022912885       -1.86286805972007
C            7.02738955539095        3.11013268615006       -1.84818467560558
C            6.29218442489724        2.10813721478061       -1.23206516636125
C            6.92430234630801        1.02779232500689       -0.62768506581355
C            4.10028592366548       -0.12605242218844       -1.19952934316507
C            2.72089659507473       -0.11961703242167       -1.20282181556488
H           -2.17666806953123       -0.52011625407687        2.07164270489694
H           -4.64713093837528       -0.52881216278040        2.06657597593995
H           -5.21158898986339        2.00799123008759        1.45613752685816
H           -6.50145024205664        3.63246491384640        2.75523346523238
H           -8.97690123087531        3.52225760392315        2.78281027085860
H          -10.12778056463725        1.76868260879488        1.44865133060531
H          -10.13038305622339       -1.79226725803348       -1.41649332568191
H           -8.98178749504431       -3.53454522695108       -2.76742756207909
H           -6.50547416387239       -3.62810813028630       -2.76590455183234
H           -5.21314696194228       -1.99921880531017       -1.47522835160108
H           -4.64971280275005        0.52998776489540       -2.07152756845305
H           -2.17928210069670        0.52386927374700       -2.07898298385023
H            2.17639163911042        0.19989054467428        2.12806141301452
H            4.64519090131235        0.21027473445531        2.12443791238922
H            5.21215640608686       -2.17986152527585        1.18508769549016
H            6.50217324991916       -3.95940454488116        2.25987646421251
H            8.97829600850178       -3.85860927022013        2.29164483663574
H           10.12807855773473       -1.95066684251040        1.18870058648560
H           10.13049821685554        1.95080535887768       -1.18979515587706
H            8.98304082640845        3.86020341091307       -2.29262595546487
H            6.50706323911435        3.96406624368827       -2.26082124897389
H            5.21484278668113        2.18593121863584       -1.18620555561211
H            4.64756037836607       -0.20438063867877       -2.12755140717038
H            2.17876198112808       -0.19355417514640       -2.13398865837128
