  57
 
 C         -6.9398129955        1.7298920223        1.6435146987
 C         -6.0307608691        2.7216503534        1.3109969379
 C         -4.7500026400        2.3868632681        0.9156140136
 C         -4.3621698812        1.0486623166        0.8340932436
 C         -2.9922830763        0.7237493108        0.4367505470
 N         -2.0191495072        1.4981334791        0.9190121660
 C         -0.7327439336        1.2186699044        0.7150567627
 C          0.2964203563        2.0218987638        1.2068935430
 C          1.6256217261        1.6720548334        1.0232218988
 C          1.9513783958        0.5138469815        0.3330211475
 N          3.3132058455        0.1558804750        0.1545332494
 C          3.8331439585       -0.9605337029        0.7943815413
 C          3.0638830381       -1.7606968851        1.6365881738
 C          3.6156878317       -2.8694829180        2.2535176654
 C          4.9456196034       -3.1975746653        2.0511218227
 C          5.7329871128       -2.4009584196        1.2357273955
 C          5.1883634637       -1.2890326436        0.6155887145
 O          6.0251311102       -0.5315076176       -0.1589937482
 C          5.4976825988        0.5683988470       -0.7803753874
 C          6.3522492327        1.3219442809       -1.5675317914
 C          5.8761679122        2.4340326772       -2.2426349145
 C          4.5390032627        2.7793823927       -2.1396210946
 C          3.6794784849        2.0326020323       -1.3537427012
 C          4.1444620743        0.9253320465       -0.6473075451
 C          0.9487821597       -0.3056723350       -0.1916835497
 C         -0.3910975199        0.0215359786       -0.0189478341
 N         -1.3794553495       -0.7095788096       -0.5423162080
 C         -2.6593800561       -0.3756753847       -0.3783382425
 C         -3.6556793985       -1.1767575048       -1.0901429036
 C         -4.7485272035       -0.5858115491       -1.7254219270
 C         -5.6585642185       -1.3643968020       -2.4137669993
 C         -5.4913560220       -2.7389558769       -2.4864419248
 C         -4.3957489743       -3.3307842176       -1.8781788588
 C         -3.4803497618       -2.5576872686       -1.1902579226
 C         -5.2758168400        0.0575137709        1.1943792213
 C         -6.5538910586        0.3991824955        1.5917247693
 H         -7.9416357928        1.9921729206        1.9499800165
 H         -6.3209579079        3.7612294873        1.3607280598
 H         -4.0346686310        3.1537452062        0.6571830161
 H          0.0320106620        2.9108620745        1.7571840036
 H          2.4093469773        2.2966567298        1.4244527720
 H          2.0299707867       -1.5056814628        1.8054902847
 H          2.9984956985       -3.4756020939        2.8983126840
 H          5.3748090170       -4.0634529014        2.5294843103
 H          6.7755114998       -2.6204889282        1.0689104460
 H          7.3841714751        1.0170132611       -1.6390122183
 H          6.5471936469        3.0185565649       -2.8516180547
 H          4.1560397278        3.6346421448       -2.6742863852
 H          2.6372201966        2.3006528143       -1.2847815170
 H          1.2019840613       -1.1876969717       -0.7586777675
 H         -4.8751783466        0.4863864674       -1.6866690729
 H         -6.5004823865       -0.8950796035       -2.9016509250
 H         -6.2077165486       -3.3444704021       -3.0217080879
 H         -4.2534938987       -4.4000252471       -1.9409891561
 H         -2.6227462041       -3.0104680052       -0.7148574259
 H         -4.9770952840       -0.9803736823        1.1728142247
 H         -7.2515203948       -0.3779276751        1.8683490721
