  73
 
 O         -0.1403734473       -4.2982334246       -0.0237080912
 S         -0.0701929868       -3.2036411252        0.9261654825
 O         -0.0813059633       -3.5631961911        2.3319543655
 C         -1.4447642107       -2.0993254563        0.6115881168
 C         -1.6590256855       -1.0277819158        1.4604899132
 C         -2.6945160929       -0.1514996316        1.2192955344
 C         -3.5375080787       -0.3124558155        0.1032629823
 N         -4.5993015122        0.5469814235       -0.1132891753
 C         -5.4929141147        0.3161708154       -1.1769425424
 C         -4.9905344721        0.2399275510       -2.4661700239
 C         -5.7943998347       -0.1163593868       -3.5349401840
 C         -7.1258043097       -0.4900823322       -3.2951725324
 C         -7.6461734572       -0.4120765266       -2.0379327412
 C         -6.8866438896        0.0730056864       -0.9263268135
 C         -7.5176308952        0.2494483329        0.2972752649
 C         -7.1043897735        1.0623999491        1.3851281109
 C         -5.9673066887        1.8522233084        1.4844088520
 C         -5.9341217123        2.9035484335        2.4549410693
 C         -4.8896894724        3.7735901659        2.5503963537
 C         -3.7801288019        3.6444593393        1.7003497836
 C         -3.7222448391        2.5757339409        0.8240752877
 C         -4.7700802341        1.6750813925        0.7095628303
 C         -3.3287489564       -1.4407074591       -0.7101704075
 C         -2.2885987008       -2.3114043588       -0.4625373111
 C          1.3787387966       -2.2229479322        0.5931108030
 C          2.1469336497       -1.7323570844        1.6348423573
 C          3.2530686206       -0.9564364481        1.3700258582
 C          3.6175771163       -0.6575568492        0.0452510018
 N          4.7051550886        0.1212017497       -0.2216740430
 C          5.1412164527        0.4192219639       -1.5380540190
 C          5.5649880506       -0.6004077361       -2.3819396185
 C          5.9533900292       -0.3162029952       -3.6781123309
 C          5.9185498482        0.9924568960       -4.1372430367
 C          5.5128296391        2.0092184240       -3.2966270668
 C          5.1370791831        1.7484771916       -1.9763594823
 C          4.7717868959        2.8540874803       -1.1058151951
 C          5.0247707796        2.9442640703        0.2065819849
 C          5.7162003406        1.9544108403        1.0161791590
 C          6.5487005956        2.3769157684        2.0557105586
 C          7.2666954019        1.4698083470        2.8084213488
 C          7.1651515609        0.1118878209        2.5429546982
 C          6.3291847266       -0.3304345160        1.5344350360
 C          5.5933543727        0.5796090008        0.7850691429
 C          2.7980061442       -1.1338147641       -0.9941595507
 C          1.6946925208       -1.9093708443       -0.7185136062
 H         -1.0208957446       -0.9026706777        2.3209138607
 H         -2.8667569766        0.6527984365        1.9152043972
 H         -3.9493327359        0.4782356005       -2.6329186711
 H         -5.3985041080       -0.1151040188       -4.5379640207
 H         -7.7406038751       -0.8255445558       -4.1175923971
 H         -8.6799953817       -0.6696775182       -1.8593134540
 H         -8.5179736571       -0.1550443087        0.3799063059
 H         -7.8407178211        1.1892315335        2.1680327089
 H         -6.7989091179        3.0188384464        3.0920935516
 H         -4.9155695880        4.5762714843        3.2728187161
 H         -2.9781175151        4.3643687981        1.7341144297
 H         -2.8492718938        2.4368014418        0.2016640887
 H         -3.9959954296       -1.6515709657       -1.5292371684
 H         -2.1254688912       -3.1764828527       -1.0864791472
 H          1.8669468969       -1.9825063791        2.6465189310
 H          3.8424835854       -0.5720038575        2.1872514091
 H          5.5695993408       -1.6176644497       -2.0182341265
 H          6.2734126649       -1.1143994273       -4.3307595292
 H          6.2095903147        1.2162233870       -5.1526913509
 H          5.4952575803        3.0292571815       -3.6522415394
 H          4.3420968035        3.7106677019       -1.6089624705
 H          4.7903392918        3.8702105211        0.7156057326
 H          6.6363754351        3.4347814585        2.2567434231
 H          7.9082380863        1.8176039837        3.6042202934
 H          7.7280456617       -0.6008908882        3.1265327847
 H          6.2248760025       -1.3863668271        1.3313355537
 H          3.0332189680       -0.8853082039       -2.0168787283
 H          1.0728668349       -2.2929751553       -1.5123646072
