80
 xtb: 6.7.1 (edcfbbe)
C           -5.64246926237657        0.00015307681411        3.12213190575628
C           -5.95608854130861        0.01197917298438        1.61467862739083
C           -7.47857547297648        0.03675052151735        1.38686185113955
C           -5.39228432271895       -1.25186582129713        0.99229271032412
C           -5.83299899760242       -2.49080363171015        1.43723423623410
C           -5.35163937961715       -3.67482880119745        0.90932950340992
C           -4.39899221948482       -3.63174611701166       -0.09227180470571
C           -3.94346608540470       -2.41455024771972       -0.55398043657158
C           -4.43255083240393       -1.21731883350955       -0.02407068247086
N           -3.95539186402987       -0.00989123128410       -0.50890050858959
C           -3.00066550778264       -0.01951777083882       -1.56087036577930
C           -3.43534670967010       -0.04293797057361       -2.88081947227986
C           -2.52057249406582       -0.05324417263673       -3.92671790263949
C           -1.17504868168852       -0.04126079286701       -3.62149710317632
C           -0.73169831124529       -0.01918150643818       -2.28598094366359
C           -1.63832589561269       -0.00680909344823       -1.24865574628784
C            0.73188713805562       -0.01586847190937       -2.28592197512513
C            1.63839457695355       -0.00187230867366       -1.24850154496150
C            3.00077075626797       -0.00672972364591       -1.56061583200143
N            3.95538527827556        0.00430156119675       -0.50854993697685
C            4.41266283569638        1.22104936956901       -0.02878923871135
C            3.90807889507941        2.40771038923144       -0.56757479560039
C            4.34411897196219        3.63395100677987       -0.11152709252462
C            5.29332710755993        3.69679334345318        0.89228923649843
C            5.79215442263255        2.52321844097982        1.42694707887539
C            5.37116013672370        1.27555496646959        0.98787491355885
C            5.95598110170676        0.02394033839140        1.61513779263424
C            7.47848315878283        0.02390684552787        1.38749962603727
C            5.64233409971941        0.03616810600036        3.12243109657850
C            5.37424472215768       -1.23943653436671        1.00895794571629
C            5.79806119961598       -2.47848457755274        1.46919726309385
C            5.30164322733497       -3.66213241665725        0.95491079038145
C            4.35168687366775       -3.61851133143474       -0.04919920365642
C            3.91283663130178       -2.40119164945488       -0.52602528906563
C            4.41552996957766       -1.20434585820407       -0.00835921012790
C            3.43560607191457       -0.02330461099127       -2.88056295147683
C            2.52095286926690       -0.03678470554846       -3.92654534197874
C            1.17539304053877       -0.03374508856387       -3.62141610944439
C            0.00022372841155       -0.04959775920950       -4.53327104880084
O            0.00029264050479       -0.06991442433661       -5.74109460515624
C           -4.39572899233351        1.20826183049107       -0.01386147283786
C           -3.87751889987322        2.39469348207184       -0.54037311115800
C           -4.29695716184377        3.62123736181047       -0.06927545162824
C           -5.24356957645908        3.68464006707185        0.93695118402547
C           -5.75747338750817        2.51127443430735        1.45796158816178
C           -5.35330729331961        1.26331840070835        1.00365444772767
H           -6.06196309822110       -0.86158012742396        3.60794138027064
H           -6.05285894903097        0.89899834884975        3.60200498105689
H           -4.56488050008776        0.00987319309739        3.27577487631305
H           -7.94131953123945       -0.85868437851619        1.83132149607730
H           -7.93290466176726        0.90200142564263        1.82612130947317
H           -7.69323240153957        0.01604300821371        0.31990163886914
H           -6.54800618809305       -2.54196293833980        2.23952430516578
H           -5.67027444184498       -4.62037531183784        1.31255627232750
H           -3.96477159988070       -4.53974947397551       -0.48643181116280
H           -3.17862010512458       -2.38090339804937       -1.32159480326784
H           -4.49637125499954       -0.03099362042062       -3.08071395354736
H           -2.84789687334943       -0.04526019191688       -4.95511357283244
H           -1.32578167439169        0.00269430370621       -0.21545633486501
H            1.32571599197404        0.00271804620061       -0.21529778247681
H            3.16846766255808        2.36139931399716       -1.34842570859158
H            3.94308743539590        4.53307380066743       -0.53601569993669
H            5.64635473370287        4.64167570007662        1.26360647878410
H            6.53413248519398        2.57786283967801        2.21329235357798
H            7.93650904974766        0.89785459765187        1.82305808810422
H            7.69314287347414        0.00672803887604        0.32049361762986
H            7.93752705669871       -0.86278933900418        1.83550161426889
H            4.56478068889782        0.02579256370524        3.27620552446965
H            6.05675409629403        0.90935656021219        3.59917414796841
H            6.05787425264948       -0.85118129679490        3.61170685670118
H            6.53711484636079       -2.53865014509382        2.24972294575512
H            5.65142923559621       -4.61683074612956        1.32987692638445
H            3.94750470290687       -4.53585137246321       -0.47059389449720
H            3.17040077184382       -2.37695253907172       -1.31388350029287
H            4.49664813689596       -0.02319996553829       -3.08023375026330
H            2.84839716175684       -0.03942519074676       -4.95481622668653
H           -3.16027989899539        2.35754284538200       -1.34157486465644
H           -3.92595579915000        4.52936509867463       -0.52113459039328
H           -5.62777096719421        4.63833260128913        1.27984550295526
H           -6.52352446259626        2.57466396293344        2.22238268283800
