  66
 
 C         11.9392053326        0.3989106507       -0.1749150242
 C         11.2112521579       -0.6258433440       -0.7772091838
 C          9.8362531753       -0.5810975073       -0.7467127758
 C          9.2017970751        0.4970230739       -0.1044169543
 C          7.7607774862        0.5890384517       -0.0548143120
 C          7.1136035775        1.6748428521        0.5677365936
 C          5.7473124023        1.6935726190        0.6412763597
 C          4.9847243296        0.6447917913        0.0782302800
 C          3.5437072473        0.6221721181        0.1018287053
 C          2.7919024732        1.8163910233        0.1354908111
 C          1.4299989423        1.7807372841        0.1413108930
 C          0.7008716820        0.5653946842        0.1213064569
 C         -0.7212762415        0.5361937064        0.0752234326
 C         -1.4976069890        1.7215461195        0.0333825621
 C         -2.8590701336        1.7024294169       -0.0152552529
 C         -3.5616136135        0.4787644561       -0.0424263287
 C         -5.0016455603        0.4376713321       -0.0988537140
 C         -5.7242119420       -0.6281064277       -0.6819133222
 C         -7.0927028526       -0.6288005040       -0.6653785442
 C         -7.7809334946        0.4534788495       -0.0828043048
 C         -9.2246677574        0.5160683445       -0.0796394313
 C         -9.9006000768        1.5901280027        0.5257736105
 C        -11.2766455960        1.6034780986        0.5184047816
 C        -11.9643058711        0.5521774452       -0.0853155104
 C        -11.2158063181       -0.4658293021       -0.6577061512
 N         -9.9004955672       -0.4833772419       -0.6594252114
 N         -7.0930055879        1.4545650174        0.4837622447
 C         -5.7896691224        1.4533865160        0.4797192144
 C         -2.8052611103       -0.6976600554       -0.0037493520
 C         -1.4194772319       -0.7081121215        0.0559114577
 C         -0.6663784080       -1.9526023291        0.1139136684
 C         -1.3080951490       -3.1978036617        0.1343866477
 C         -0.6052248105       -4.3801203591        0.2056329470
 C          0.7796005030       -4.3502627060        0.2696708464
 C          1.4350005993       -3.1390521795        0.2493139189
 C          0.7447855896       -1.9231864169        0.1610397631
 C          1.4489591619       -0.6497242932        0.1280364338
 C          2.8340332269       -0.5837688027        0.0967720896
 C          5.7323450475       -0.3676427564       -0.5576117195
 N          7.0341051383       -0.3879867552       -0.6148682659
 N          9.9161985186        1.4710003994        0.4726932137
 C         11.2301805998        1.4238834145        0.4341308290
 H         13.0173033773        0.3985018801       -0.1734111280
 H         11.7226012324       -1.4444352922       -1.2633623846
 H          9.2202037155       -1.3386823788       -1.2050089407
 H          7.7280108954        2.4469641621        1.0036617638
 H          5.2474448903        2.4934427922        1.1671280563
 H          3.3011434045        2.7682852981        0.1286944522
 H          0.9014020486        2.7195939117        0.1584670165
 H         -1.0066754134        2.6807530844        0.0339585499
 H         -3.4051879587        2.6324751708       -0.0662574707
 H         -5.1919189045       -1.4261930104       -1.1781337352
 H         -7.6771798743       -1.4159614031       -1.1154676977
 H         -9.3146425083        2.3694762001        0.9870754390
 H        -11.8195947416        2.4177092147        0.9767830742
 H        -13.0417188952        0.5273283271       -0.1147191396
 H        -11.6928201764       -1.3071053820       -1.1453535037
 H         -5.3252590706        2.2773722596        1.0056999346
 H         -3.3476188687       -1.6278923031        0.0025530752
 H         -2.3835291730       -3.2556542133        0.0979679735
 H         -1.1326833629       -5.3226960002        0.2179862030
 H          1.3435987718       -5.2690266428        0.3367362151
 H          2.5107919040       -3.1493071122        0.3139321343
 H          3.4124023217       -1.4923257805        0.0945993010
 H          5.2348097949       -1.1710870235       -1.0854471843
 H         11.7395953631        2.2454675672        0.9224798404
