  70
 
 C          0.7298119798        2.2584325331       -3.2890846644
 C         -0.5388030453        1.9708201626       -2.8191526352
 C         -0.7100765235        1.0841257712       -1.7580662444
 C         -2.0544028221        0.7814669148       -1.2420005794
 C         -3.1176603569        0.5535373586       -2.1133319974
 C         -4.3814487779        0.2737791842       -1.6324439767
 C         -4.6095544533        0.2140449375       -0.2605490820
 N         -5.8944114756       -0.0640381545        0.2326636673
 C         -6.5816623359        0.6896070137        1.1627941416
 C         -6.2139135340        1.8736596319        1.7870576094
 C         -7.1110435289        2.4437815446        2.6699103153
 C         -8.3507474654        1.8605925412        2.9261761191
 C         -8.7314351189        0.6948631862        2.2916327992
 C         -7.8465587574        0.1022375236        1.3994769254
 C         -7.9142914393       -1.0673284680        0.5686599833
 C         -8.8786575652       -2.0481488805        0.3739802097
 C         -8.6099226289       -3.0753146981       -0.5087676880
 C         -7.3914836436       -3.1406212805       -1.1824462950
 C         -6.4165183355       -2.1775606530       -1.0054328709
 C         -6.6898710965       -1.1296729295       -0.1369854464
 C         -3.5530672049        0.4363437762        0.6180450671
 C         -2.2925858652        0.7176636923        0.1295210398
 C          0.4118785982        0.4890470302       -1.1912385272
 C          1.6910080272        0.7673019095       -1.6611941864
 C          2.8624601977        0.1166793256       -1.0541104357
 C          2.8406205087       -1.2443297113       -0.7386860995
 C          3.9423008989       -1.8407111667       -0.1788284633
 C          5.1151642604       -1.1250173943        0.1042537814
 C          6.2765093837       -1.7653585034        0.6936878152
 C          6.2938183740       -3.1395226157        0.9751478124
 C          7.3893260059       -3.7531220099        1.5338588135
 C          8.5199519709       -3.0022754902        1.8304700711
 C          8.5306455461       -1.6543197067        1.5611965455
 C          7.4267971501       -1.0024160807        0.9924640988
 C          7.4493167725        0.4211844950        0.7024166705
 C          8.5674655671        1.2134264128        1.0013998278
 C          8.6039033673        2.5575760342        0.7162279503
 C          7.5086445300        3.1609053360        0.1111866777
 C          6.3969409213        2.4090504519       -0.1857266624
 C          6.3305906199        1.0376211245        0.1002407827
 C          5.1441619590        0.2537212236       -0.1994474373
 C          4.0106722045        0.8356475981       -0.7794612045
 C          1.8400851918        1.6647492075       -2.7165632406
 H          0.8541075742        2.9507972563       -4.1095292472
 H         -1.4001289247        2.4502163611       -3.2607466342
 H         -2.9492313263        0.5853420754       -3.1798096399
 H         -5.2016225431        0.1113856626       -2.3162131443
 H         -5.2624330302        2.3415942845        1.5835145614
 H         -6.8468771871        3.3640661429        3.1706328922
 H         -9.0233593124        2.3359810009        3.6252102890
 H         -9.6982424684        0.2516142104        2.4790582682
 H         -9.8167990001       -2.0062516505        0.9073053970
 H         -9.3478752001       -3.8464186877       -0.6759279665
 H         -7.2039763901       -3.9643949406       -1.8560092405
 H         -5.4696076619       -2.2455088860       -1.5196871151
 H         -3.7246268770        0.3788325313        1.6828435561
 H         -1.4832667350        0.9027211367        0.8205682552
 H          0.2879134479       -0.2032592300       -0.3710354844
 H          1.9604670165       -1.8319522438       -0.9555591020
 H          3.8832807344       -2.8936536043        0.0433082501
 H          5.4340917921       -3.7495263508        0.7509162365
 H          7.3708176789       -4.8138768670        1.7379755486
 H          9.3878179261       -3.4739971667        2.2681283890
 H          9.4247061787       -1.1010312965        1.7978749395
 H          9.4328301310        0.7747831286        1.4706131034
 H          9.4807546819        3.1396364544        0.9602847738
 H          7.5276596575        4.2156217589       -0.1220527990
 H          5.5622741483        2.9074832341       -0.6509604364
 H          4.0010541469        1.8887874956       -1.0077539398
 H          2.8263104817        1.8788970126       -3.1018996977
