  82
 
 N          3.2784609515        1.1446735809        1.6927443344
 C          2.3527070597        0.7913622094        1.0869796673
 C          1.2557342351        0.3822949082        0.3632487359
 C          0.2964040087        1.3470127027       -0.1406547923
 N          0.6336629298        2.7012144087       -0.0766282517
 C          1.8211395434        3.2890135313       -0.4815302888
 C          2.8586943714        2.6048021768       -1.2300905771
 C          2.5622465091        1.5972663351       -2.1486643480
 C          3.5792518255        0.9971621578       -2.8698509946
 C          4.8945668716        1.3885843147       -2.6808909681
 C          5.1925849065        2.3963467198       -1.7758711154
 C          4.1831067029        3.0084058442       -1.0607408287
 N          1.8725621754        4.5604673272       -0.1872012551
 C          0.6947106741        4.8696998048        0.4226914435
 C          0.2342016499        6.0735803554        0.9444586369
 C         -1.0176510641        6.0847490494        1.5233671070
 C         -1.8013050541        4.9299637489        1.5982326931
 C         -1.3645909355        3.7238508924        1.0879063154
 C         -0.1144546956        3.7061836457        0.4915472196
 C         -0.9122827504        0.9419331849       -0.6229607839
 C         -1.2194830923       -0.4392406293       -0.7357760025
 N         -2.4150870036       -0.8311512894       -1.3115671016
 C         -3.6793129922       -0.3064046798       -1.0528460770
 C         -3.9947820280        0.5703922767        0.0521235147
 C         -3.2964646922        0.5217107778        1.2625088504
 C         -3.6720596170        1.3353039909        2.3138003222
 C         -4.7389088057        2.2110320765        2.1779908556
 C         -5.4480740997        2.2518792970        0.9863472872
 C         -5.0889197149        1.4341620671       -0.0649717557
 N         -4.5883702021       -0.7907056549       -1.8663453417
 C         -3.9602264936       -1.6816704572       -2.6755963801
 C         -4.4529629966       -2.4577335464       -3.7194765907
 C         -3.5624160037       -3.2642527646       -4.3970204704
 C         -2.2045663419       -3.3007247059       -4.0653314860
 C         -1.6926697954       -2.5421408618       -3.0315569645
 C         -2.5817437830       -1.7415580566       -2.3290982313
 C         -0.2714038218       -1.4011273497       -0.3209849263
 C          0.9204367888       -1.0204388538        0.2268725125
 N          1.7982911547       -1.9818011953        0.7313055482
 C          1.4542823264       -3.0430469180        1.5485270204
 C          0.1402156687       -3.2079864175        2.1519436802
 C         -0.5708060438       -2.1225806995        2.6635656601
 C         -1.8076462317       -2.3191105228        3.2472246627
 C         -2.3494206228       -3.5924746906        3.3259867852
 C         -1.6367020196       -4.6769855215        2.8417063148
 C         -0.3955194400       -4.4898473729        2.2636101217
 N          2.4558380958       -3.8521214025        1.7634755710
 C          3.5263238714       -3.3359470895        1.0938241762
 C          4.8289321172       -3.8063105907        0.9774666754
 C          5.7086678004       -3.0724608021        0.2074930392
 C          5.3110161457       -1.9034797601       -0.4429787271
 C          4.0206495232       -1.4196245254       -0.3437664468
 C          3.1356323727       -2.1402540313        0.4398899038
 H          1.5373708975        1.3033975369       -2.3260650919
 H          3.3423740179        0.2205372440       -3.5828539075
 H          5.6838895129        0.9109248136       -3.2421301110
 H          6.2169834939        2.7033084119       -1.6289936066
 H          4.3952174682        3.7934606713       -0.3533262937
 H          0.8477975336        6.9581796699        0.8942955863
 H         -1.4055556511        7.0052009266        1.9333159396
 H         -2.7743303124        4.9802268025        2.0630857735
 H         -1.9741687289        2.8362344591        1.1528621063
 H         -1.6211470881        1.6683342840       -0.9909251562
 H         -2.4835628750       -0.1781998379        1.3893312719
 H         -3.1293519158        1.2881944153        3.2471145774
 H         -5.0211695627        2.8497716539        3.0013364495
 H         -6.2857598126        2.9250782810        0.8809778680
 H         -5.6358708275        1.4474828569       -0.9945763861
 H         -5.4971306307       -2.4144165559       -3.9831074286
 H         -3.9159798982       -3.8806117093       -5.2099874086
 H         -1.5418830830       -3.9375656417       -4.6312695151
 H         -0.6424184160       -2.5742230448       -2.7850492459
 H         -0.5194579926       -2.4490921284       -0.3957367229
 H         -0.1413343512       -1.1311587608        2.6298055628
 H         -2.3520196558       -1.4778574905        3.6503662987
 H         -3.3202842137       -3.7377488709        3.7753904165
 H         -2.0493333685       -5.6719736033        2.9168778007
 H          0.1749175321       -5.3252589750        1.8882952146
 H          5.1259380161       -4.7156830884        1.4741772570
 H          6.7296013348       -3.4077741665        0.1026236509
 H          6.0288127277       -1.3571524066       -1.0355673363
 H          3.7289518656       -0.5104772002       -0.8437890773
