  93
 
 C         -4.1040030245       -2.4748779891        1.1804887143
 C         -4.1629010216       -2.7081236106       -0.3461470580
 C         -5.6254696976       -2.9085448270       -0.7423961019
 C         -3.3013606422       -3.9107623554       -0.6616498654
 C         -3.8033832049       -5.1827443850       -0.8829655655
 C         -2.9609830336       -6.2654047781       -1.0722595098
 C         -1.5888806652       -6.0835349062       -1.0459231148
 C         -1.0656079305       -4.8232338460       -0.8480643858
 C         -1.9115130504       -3.7291555372       -0.6532621054
 N         -1.3734048628       -2.4528773040       -0.5116185933
 C         -0.0335248081       -2.3629817962       -0.0698434062
 C          0.2821978716       -2.9042293454        1.1810454597
 C          1.5716403485       -2.8820765519        1.6507200079
 C          2.5999130873       -2.2823164552        0.9030310547
 C          3.9552301722       -2.3303269651        1.4575905753
 O          4.2208562666       -3.1069484010        2.4059834919
 C          4.9794470988       -1.4855514582        0.8802322543
 C          6.3403212767       -1.6830168080        1.2272958509
 C          7.2942575610       -0.8908358883        0.6436988589
 C          6.9201529625        0.1183680425       -0.2545136098
 C          5.5615369740        0.2978626914       -0.4900764628
 C          5.0202227953        1.3738230312       -1.3605753333
 O          5.6255781873        1.8630418270       -2.2915213194
 C          3.6376913671        1.7633209193       -0.9670877410
 C          3.3592039891        2.0680164004        0.3636246387
 C          2.0802800159        2.4128746098        0.7473838595
 C          1.0462151012        2.4140418785       -0.1850374294
 N         -0.2722040732        2.7402734604        0.2261224356
 C         -0.9255674093        1.9114702300        1.1278083683
 C         -0.3111734123        0.7328590916        1.5682552260
 C         -0.9338806143       -0.0976420326        2.4736741778
 C         -2.1991078678        0.2116887989        2.9401068191
 C         -2.8216314309        1.3584942133        2.4866012509
 C         -2.2114892001        2.2225840828        1.5880475647
 C         -2.9474951100        3.4726030708        1.1545940677
 C         -3.1242514270        4.3847987565        2.3852610029
 C         -4.3234560127        3.0726876601        0.5941885266
 C         -2.1693894147        4.2500282954        0.1138682334
 C         -2.7235048475        5.4020187699       -0.4282316484
 C         -2.0340059270        6.2011119422       -1.3203169195
 C         -0.7350655721        5.8659738563       -1.6607732127
 C         -0.1587632267        4.7302289399       -1.1351642774
 C         -0.8699853857        3.8909303050       -0.2685326932
 C          1.3212977010        2.1036652875       -1.5139215611
 C          2.6125120303        1.8041340123       -1.9050996061
 N          4.6545624723       -0.4902639601        0.0625289624
 C          2.2836937301       -1.7878851335       -0.3655477937
 C          0.9954241971       -1.8405443118       -0.8526586070
 C         -2.1294823123       -1.3627670095       -0.9206172771
 C         -1.5431829084       -0.1471649232       -1.2759665370
 C         -2.3048070845        0.8677943046       -1.8175044588
 C         -3.6620232991        0.6888654695       -2.0141552311
 C         -4.2654789842       -0.4786146415       -1.5767439581
 C         -3.5285068329       -1.4987785549       -1.0014842818
 H         -4.6904420305       -1.5972818650        1.4442582386
 H         -3.0811107104       -2.3091064658        1.5093126599
 H         -4.5041955906       -3.3400645441        1.7050142908
 H         -6.0456330282       -3.7570744699       -0.2091029721
 H         -5.7199802490       -3.0797996587       -1.8123677893
 H         -6.2137646776       -2.0373454612       -0.4668196473
 H         -4.8679607582       -5.3489893114       -0.9022342784
 H         -3.3774185536       -7.2474286811       -1.2363915269
 H         -0.9241083232       -6.9210239562       -1.1925714603
 H          0.0031917201       -4.6754417564       -0.8573314756
 H         -0.5055026632       -3.3538408913        1.7693908254
 H          1.8255520327       -3.3110565343        2.6084165457
 H          6.5688138254       -2.4681334451        1.9313448141
 H          8.3394124935       -1.0395708521        0.8735001719
 H          7.6379821432        0.7613383421       -0.7361573039
 H          4.1535764725        2.0583752694        1.0943769123
 H          1.8682785704        2.6732858916        1.7738495494
 H          0.6656961368        0.4594983203        1.2017412209
 H         -0.4238001947       -0.9858173208        2.8117055418
 H         -2.6964747759       -0.4313086368        3.6500404664
 H         -3.8092827720        1.5886682713        2.8550334688
 H         -3.6874184173        5.2770869476        2.1256848445
 H         -2.1511381255        4.6909921237        2.7647115746
 H         -3.6520053470        3.8623572956        3.1786489142
 H         -4.8415910719        3.9314241756        0.1780920470
 H         -4.9511417397        2.6509678803        1.3738274205
 H         -4.1996891465        2.3274856368       -0.1881140056
 H         -3.7211066134        5.6963657080       -0.1401918207
 H         -2.4980107183        7.0861967246       -1.7272347482
 H         -0.1646149542        6.4920742234       -2.3297838852
 H          0.8630281209        4.4975031996       -1.3886325329
 H          0.5234456988        2.1082705283       -2.2416942925
 H          2.8303018123        1.5750298069       -2.9373866148
 H          3.0635324922       -1.3809260674       -0.9905825822
 H          0.7959201135       -1.5197855288       -1.8643481189
 H         -0.4870787958        0.0016679570       -1.1334204253
 H         -1.8401857825        1.8006165836       -2.1005739943
 H         -4.2535231662        1.4597873771       -2.4850214279
 H         -5.3329082140       -0.5767831499       -1.6858646750
