  59
 
 C         -3.3350681086        3.1233497029       -2.0547789723
 C         -2.4119703734        2.1522445837       -2.4355233955
 C         -2.3341368564        0.9363053727       -1.7831772032
 C         -3.2098791604        0.7099186263       -0.7307515351
 C         -4.1710242359        1.6778937856       -0.3564558049
 C         -4.2235364295        2.8946744585       -1.0210692268
 C         -4.9390942937        1.0967014956        0.7110443030
 C         -5.9985678249        1.5495013399        1.4839695956
 C         -6.5092422514        0.7147179729        2.4599621205
 C         -5.9693553814       -0.5508772485        2.6774063056
 C         -4.9132841583       -1.0240451543        1.9219089394
 C         -4.4097030426       -0.1971885716        0.9275683038
 N         -3.3623325202       -0.4119775581        0.0572625442
 C         -2.5980463233       -1.5800704166       -0.0460116728
 C         -3.2169316785       -2.8293912671       -0.1950033705
 N         -2.5105023069       -3.9419795185       -0.3138795802
 C         -1.2027667144       -3.8978784870       -0.3231664233
 C         -0.4600719920       -2.7010675904       -0.2058240024
 C          0.9596858738       -2.6233979288       -0.2589600292
 C          1.8154644546       -3.7254579897       -0.4636950172
 N          3.1019971931       -3.5913586287       -0.5571016429
 C          3.6709612857       -2.3778005533       -0.4407428732
 C          2.8670762798       -1.2768556939       -0.1412252179
 N          3.4164201111       -0.0190517060        0.0188977761
 C          4.6465758437        0.2918933760        0.5794669476
 C          5.5597747727       -0.5209453761        1.2348380151
 C          6.7116512968        0.0653686836        1.7287408132
 C          6.9513404296        1.4287899446        1.5900575381
 C          6.0263300499        2.2512515293        0.9749610510
 C          4.8639217272        1.6848466101        0.4736004170
 C          3.6988706479        2.2385960451       -0.1643662964
 C          3.3239069024        3.5286280397       -0.5098386640
 C          2.0890572396        3.7221654077       -1.1007987636
 C          1.2398373048        2.6494826393       -1.3564473210
 C          1.6007165271        1.3540739783       -1.0332451432
 C          2.8278898614        1.1581061070       -0.4216193502
 N          1.5558811808       -1.4045630980       -0.0620325698
 C         -1.2190697240       -1.5209720647       -0.0366127995
 H         -3.3621314299        4.0628339173       -2.5864934483
 H         -1.7503547278        2.3494093565       -3.2666202029
 H         -1.6281277029        0.1817212255       -2.0951779967
 H         -4.9502255793        3.6414965258       -0.7393037950
 H         -6.4105895521        2.5345656157        1.3251419358
 H         -7.3353830635        1.0474708379        3.0703961535
 H         -6.3833652147       -1.1750800398        3.4551919777
 H         -4.4910836967       -2.0007340613        2.1031924842
 H         -4.2915129458       -2.9267838148       -0.2369145672
 H         -0.7125559108       -4.8563590330       -0.4197769522
 H          1.4145361515       -4.7247283681       -0.5291298446
 H          4.7204242339       -2.2858522152       -0.6539764256
 H          5.3770416320       -1.5739548027        1.3804423234
 H          7.4370928858       -0.5504378305        2.2388055476
 H          7.8643708305        1.8484432710        1.9846103093
 H          6.1963014520        3.3137906222        0.8917757436
 H          3.9825397234        4.3610074179       -0.3139672970
 H          1.7756950610        4.7193945557       -1.3712001330
 H          0.2788817709        2.8303436980       -1.8135589667
 H          0.9493901567        0.5214877479       -1.2448096110
 H         -0.7093316771       -0.5816325189        0.1128631490
