  59
 
 C          5.8732738552        1.3506275042        0.0084307882
 C          5.1796657317        1.2744597291       -1.1884496322
 C          3.8057634267        1.1061945501       -1.1868136992
 C          3.1268471754        1.0136158682        0.0212726193
 N          1.7108048453        0.8377731346        0.0270406747
 C          0.9047499827        1.9531214595        0.0540022736
 C          1.4706336840        3.2391020983        0.0825443194
 C          0.6705971911        4.3577386266        0.1115556148
 C         -0.7137082416        4.2287403028        0.1120069572
 C         -1.2797484097        2.9652757167        0.0817654610
 C         -0.4968096617        1.8230453674        0.0525664020
 C         -1.1686257519        0.4748024672        0.0121955167
 C         -2.1463642190        0.3289902068        1.1644019674
 C         -1.8772110404        0.3233763964        2.5149133290
 C         -2.9347183838        0.1687323258        3.4027275984
 C         -4.2342901403        0.0250847862        2.9392093870
 C         -4.5100296156        0.0290583932        1.5812040557
 C         -3.4587313293        0.1814653730        0.6904194171
 C         -3.4323222663        0.2168207329       -0.7627550060
 C         -4.4502919852        0.1091062853       -1.6976827583
 C         -4.1253591500        0.1722514472       -3.0433035587
 C         -2.8101871469        0.3393557543       -3.4515863593
 C         -1.7857918306        0.4486264081       -2.5192697744
 C         -2.1038583304        0.3860208877       -1.1809514915
 C         -0.1773007372       -0.6643073709        0.0018076211
 C         -0.6571440925       -1.9688832266       -0.0161388760
 C          0.2080924307       -3.0953000213       -0.0275730561
 C         -0.2619472390       -4.4011142987       -0.0424335097
 C          0.6355685631       -5.4960991793       -0.0533287334
 C          1.9916122638       -5.2814630273       -0.0491670494
 C          2.4959546976       -3.9771828346       -0.0339763359
 C          1.6207114257       -2.8638298027       -0.0226210657
 C          2.0949520852       -1.5595274452       -0.0065040766
 C          1.1908077339       -0.4330616402        0.0066922466
 C          3.8188771776        1.0910809686        1.2230209698
 C          5.1927067588        1.2593126427        1.2118147395
 H          6.9450076892        1.4802217401        0.0034150901
 H          5.7078361372        1.3436378244       -2.1274404851
 H          3.2553022457        1.0419701991       -2.1136796786
 H          2.5440780088        3.3469754394        0.0821376122
 H          1.1238001909        5.3374020640        0.1336457266
 H         -1.3441209209        5.1040733163        0.1346627268
 H         -2.3548487747        2.8581238605        0.0799076152
 H         -0.8652417812        0.4317332248        2.8784596000
 H         -2.7423797027        0.1589747930        4.4658167044
 H         -5.0419435975       -0.0932886473        3.6475475373
 H         -5.5235491801       -0.0856276589        1.2255895074
 H         -5.4758743148       -0.0226930585       -1.3851521661
 H         -4.9065610901        0.0891970920       -3.7855070987
 H         -2.5795857961        0.3831221506       -4.5062029628
 H         -0.7615477369        0.5758716241       -2.8398238626
 H         -1.7235023521       -2.1391029293       -0.0208786022
 H         -1.3266283913       -4.5854667400       -0.0457024200
 H          0.2378295183       -6.5007776500       -0.0648827587
 H          2.6783294647       -6.1160203498       -0.0574781288
 H          3.5622900788       -3.8054227563       -0.0305411681
 H          3.1582855899       -1.3821492322       -0.0010381944
 H          3.2784215163        1.0150974217        2.1548903918
 H          5.7311681634        1.3163770996        2.1457641964
