  73
 
 C        -10.2112536793       -1.1354054032       -0.0033923294
 C         -9.6243055364       -0.4207807690       -1.0362575241
 C         -8.2633461416       -0.1833076823       -1.0342665698
 C         -7.4546947810       -0.6685738167       -0.0025024085
 C         -6.0127768663       -0.4200813428        0.0016188198
 C         -5.1034493764       -1.5190769945        0.0313153518
 C         -5.5502147081       -2.8437546794       -0.0213953117
 C         -4.6687743351       -3.9150671927        0.1041777591
 C         -3.3252179184       -3.6762926469        0.2984737994
 C         -2.8467653504       -2.3669243685        0.2980139731
 C         -3.6983576613       -1.2760379592        0.1035471360
 C         -3.2043123896        0.0643394815        0.0198283643
 C         -1.7717270783        0.3125157742        0.0256648875
 C         -1.1955494653        1.2178288091        0.9285594635
 C          0.1609919513        1.4543642948        0.9354711220
 C          0.9930125738        0.8076185273        0.0213242771
 N          2.3703110070        1.0652219176        0.0103820212
 C          2.9537909899        2.3170411081       -0.0243648394
 C          2.3603191196        3.5702673875       -0.0850190831
 C          3.1892508501        4.6747960623       -0.1367469526
 C          4.5771924258        4.5450636488       -0.1377855462
 C          5.1751789310        3.3010424492       -0.1036770980
 C          4.3609722543        2.1765333034       -0.0514897653
 C          4.6248321137        0.7681368635       -0.0287382276
 C          5.7747139250       -0.0100756996       -0.0255177034
 S          7.4269234453        0.5567785201       -0.0788252987
 C          8.0167396142       -1.0934104680       -0.0411505491
 C          9.3468358571       -1.4765978417       -0.0634016280
 C          9.6434334893       -2.8262205948       -0.0282150581
 C          8.6260073261       -3.7742729200        0.0292692419
 C          7.3010536359       -3.3891211420        0.0511290811
 C          6.9750721882       -2.0352343138        0.0159534532
 C          5.6783264027       -1.4096916359        0.0262565145
 C          4.4204186622       -2.0210844079        0.0909381112
 C          3.2654623318       -1.2720668815        0.0854988329
 C          3.3696682281        0.1165246966        0.0070118391
 C          0.4347719469       -0.0922703523       -0.8869736452
 C         -0.9193239838       -0.3419544693       -0.8752088933
 C         -4.1178731807        1.1620826851       -0.0727849024
 C         -3.6786248715        2.4758824204       -0.2573824742
 C         -4.5676436227        3.5495059950       -0.2646358796
 C         -5.9159377426        3.3240000139       -0.0885645520
 C         -6.3891561772        2.0187923653        0.0246958365
 C         -5.5240367756        0.9202701352       -0.0197100773
 C         -8.0587728945       -1.3953230134        1.0275021881
 C         -9.4219779719       -1.6195470622        1.0284138662
 H        -11.2763941287       -1.3147942078       -0.0031873667
 H        -10.2320484675       -0.0472542979       -1.8482175690
 H         -7.8066352094        0.3603172852       -1.8491976215
 H         -6.6014936237       -3.0426114456       -0.1634691012
 H         -5.0484131173       -4.9255431490        0.0653135346
 H         -2.6354699234       -4.4954994883        0.4393771438
 H         -1.7933463575       -2.1972718710        0.4593124196
 H         -1.8255393165        1.7017712234        1.6603743674
 H          0.5917828647        2.1256810842        1.6635229221
 H          1.2870422152        3.6818159273       -0.1028820417
 H          2.7514067956        5.6612605234       -0.1810692691
 H          5.1905986986        5.4331186613       -0.1756889232
 H          6.2496259590        3.1957232154       -0.1209824253
 H         10.1283105771       -0.7332342484       -0.1077303993
 H         10.6746707807       -3.1459259228       -0.0452507999
 H          8.8787823033       -4.8240366658        0.0560346997
 H          6.5161097262       -4.1290292260        0.0949270929
 H          4.3627003923       -3.0970117048        0.1496672963
 H          2.3005536626       -1.7498590906        0.1520026396
 H          1.0691325475       -0.5727059423       -1.6171689947
 H         -1.3441645738       -1.0153912894       -1.6050665503
 H         -2.6274229729        2.6694952542       -0.4051570293
 H         -4.1901036527        4.5528500629       -0.3964060539
 H         -6.6127210566        4.1486161005       -0.0552847296
 H         -7.4482467089        1.8539139290        0.1512290522
 H         -7.4488101440       -1.7585449741        1.8425945094
 H         -9.8731247419       -2.1727166094        1.8399540759
