  112
 
 C         -2.4131030595       -7.7516840000        0.0613143644
 C         -1.0876926081       -7.0315548664       -0.2296967259
 C         -0.6681684067       -7.3634755387       -1.6649797846
 C          0.0043189633       -7.5445443338        0.7210801270
 C         -1.2771826290       -5.5400373294       -0.0039609170
 C         -1.6690790460       -5.0809790136        1.2526489024
 C         -1.8624616501       -3.7373666832        1.5061674253
 C         -1.6624123895       -2.8069462994        0.4932365158
 N         -1.8768887378       -1.4312869523        0.7524074676
 C         -0.9556669491       -0.5325917685        1.3050974812
 C          0.4097066694       -0.7348778389        1.5627798536
 C          1.1086586871        0.3086406524        2.2438248159
 C          2.4502866753        0.2656692212        2.4363879060
 C          3.2482639954       -0.8020417192        1.9292593386
 C          4.6662089409       -0.6895391030        1.8566991935
 C          5.4207394561       -1.4591849153        0.9292295630
 C          6.6711552684       -1.0657914247        0.5391950061
 C          7.2606889529        0.0730648327        1.0987963674
 S          8.2833732480        1.0660119451        0.0440597002
 O          9.0273833662        2.0599877855        0.7932583086
 O          9.0377396726        0.2518988925       -0.8895849125
 C          6.8561496979        1.8020887228       -0.7519861993
 C          6.1811822436        1.0465987094       -1.7005080519
 C          4.8467866771        1.2892328640       -1.9489958886
 C          4.1550413473        2.2760372638       -1.2381060578
 C          2.6946371733        2.3686356777       -1.3243918586
 C          2.0054958476        2.0822533848       -2.5050344104
 C          0.6264957703        2.0969288626       -2.5443032357
 C         -0.1048711459        2.3963035095       -1.3963133970
 N         -1.5068514878        2.4187152571       -1.4369351923
 C         -2.3163649756        1.4233194475       -1.9347899967
 C         -1.9772148731        0.1558615953       -2.3895720854
 C         -2.9962785153       -0.6614815237       -2.8416312392
 C         -4.3234263240       -0.2396001791       -2.8326982179
 C         -4.6701507754        1.0115070349       -2.3570321804
 C         -3.6649922303        1.8511310764       -1.9014356781
 C         -3.6539215065        3.1818416727       -1.3587301339
 C         -4.6433035462        4.1249680219       -1.1238147681
 C         -4.2758107099        5.3546462833       -0.6109873895
 C         -2.9413917024        5.6508607420       -0.3441716231
 C         -1.9372266408        4.7298268550       -0.5765399045
 C         -2.3025563036        3.4880272590       -1.0763266505
 C          0.5689362049        2.6913299409       -0.2148929801
 C          1.9474098368        2.6780557200       -0.1843662454
 C          4.8807024491        3.0984859080       -0.3684997745
 C          6.2147575705        2.8560097501       -0.1166542200
 C          6.6293876796        0.7099711499        2.1727470248
 C          5.3768364596        0.3238408064        2.5600661590
 C          2.5289799045       -1.8976566238        1.3680263373
 C          1.1797473030       -1.8750987276        1.1976963176
 N         -1.5548953214        0.6404031899        1.5828143196
 C         -2.8332058925        0.5099805953        1.2399652562
 C         -3.8825657788        1.4586775436        1.4093596593
 C         -3.6324079625        2.7108985274        1.9770314929
 C         -4.6606482939        3.5998104565        2.1863672098
 C         -5.9541517693        3.2371696414        1.8261065872
 C         -6.2108656761        2.0064881716        1.2597060879
 C         -5.1894810968        1.0750788640        1.0303500340
 C         -5.4309642248       -0.2354617015        0.4494741445
 C         -6.7061667387       -0.6273900512        0.0299899386
 C         -6.9522364394       -1.8711146008       -0.5096522785
 C         -5.9130091190       -2.7884888191       -0.6565979714
 C         -4.6455549627       -2.4460981791       -0.2632253449
 C         -4.3693791935       -1.1815807194        0.2945816740
 C         -3.0833525065       -0.7842244045        0.7133901889
 C         -1.2641408879       -3.2422416305       -0.7634701181
 C         -1.0771646103       -4.5924498039       -1.0027067705
 H         -2.7256674992       -7.6107012897        1.0922001013
 H         -3.1993398333       -7.3733033333       -0.5891456485
 H         -2.3030009516       -8.8190401211       -0.1169345051
 H         -0.5507424264       -8.4404125524       -1.7656829448
 H         -1.4224142214       -7.0414602399       -2.3794648850
 H          0.2836358384       -6.8997942575       -1.9138580958
 H         -0.2703967491       -7.3951354592        1.7615860837
 H          0.9414265146       -7.0225480720        0.5372040183
 H          0.1664328397       -8.6083293504        0.5619864779
 H         -1.8314089508       -5.7795753105        2.0583171861
 H         -2.1696116332       -3.4014244621        2.4860473835
 H          0.5246236103        1.1437219598        2.5949298879
 H          2.9306216369        1.0916061456        2.9351117135
 H          4.9718008004       -2.3122835764        0.4472104236
 H          7.2095084946       -1.5892146726       -0.2365695680
 H          6.7109875820        0.2491629888       -2.1983699937
 H          4.3175208637        0.6595921353       -2.6473547128
 H          2.5564610553        1.8731721314       -3.4093230609
 H          0.1059701099        1.8938038953       -3.4689395431
 H         -0.9476458855       -0.1715036080       -2.3905173462
 H         -2.7641140929       -1.6481375244       -3.2146042824
 H         -5.0906571157       -0.9051518325       -3.1977220421
 H         -5.7003314656        1.3319264620       -2.3427251931
 H         -5.6758491498        3.9011139458       -1.3433352266
 H         -5.0309425673        6.1028641643       -0.4216080006
 H         -2.6841437139        6.6246559957        0.0457788638
 H         -0.9033041746        4.9741822695       -0.3872882147
 H         -0.0002669694        2.8899934357        0.6794249699
 H          2.4555320868        2.8705757364        0.7467554688
 H          4.3861449066        3.9169154466        0.1317498473
 H          6.7724141768        3.4487058481        0.5922537719
 H          7.1413830947        1.5302772453        2.6532035950
 H          4.9108627318        0.8209361071        3.3958541723
 H          3.0691280398       -2.7848546119        1.0760667801
 H          0.6944801300       -2.7329091325        0.7627799528
 H         -2.6163104278        2.9493948043        2.2498293693
 H         -4.4692411696        4.5653783578        2.6286566559
 H         -6.7691382026        3.9266380874        1.9912227154
 H         -7.2311532579        1.7708235354        1.0031626485
 H         -7.5341902568        0.0564330972        0.1213919613
 H         -7.9525023279       -2.1343737962       -0.8199914385
 H         -6.1045855122       -3.7626433362       -1.0810152898
 H         -3.8416545834       -3.1530713530       -0.3823328893
 H         -1.1032621350       -2.5198832338       -1.5483276999
 H         -0.7702016754       -4.8924770054       -1.9906155004
