78
 xtb: 6.7.1 (edcfbbe)
O           -0.42081152910661       -0.19624461232045        1.40554877753409
C           -1.13805082088091        0.60474847856856        0.82202305856204
C           -2.56749220027686        0.35115942428088        0.56808504788029
C           -3.27981540238380        1.05465468806264       -0.40513326179648
C           -4.60649965522181        0.76224698601323       -0.64308343125519
C           -5.25205192569947       -0.23324350513287        0.09121042429780
N           -6.60681209513591       -0.52428945993241       -0.14949530542654
C           -7.02748772214567       -0.97850875211140       -1.40543498467192
C           -6.13788016863689       -1.21832236825136       -2.44638121846730
C           -6.58786502981827       -1.67208865176116       -3.67712710362952
C           -7.93191381927105       -1.90862967378805       -3.88620749717897
C           -8.82863916780900       -1.71022363688958       -2.84680690548960
C           -8.38393238617078       -1.25899888052709       -1.61706407784614
O           -9.32818385132938       -1.12392577796957       -0.62936444746989
C           -8.89940225916106       -0.69261113717305        0.60416619191818
C           -9.86266997903884       -0.55639333881795        1.58764076825098
C           -9.51658377327280       -0.09064388901637        2.84754119698545
C           -8.20536541256790        0.25561181577197        3.10620456459822
C           -7.23626022945248        0.11873179238103        2.12375281832775
C           -7.55881150779623       -0.38095238946138        0.86718348368578
C           -4.54253247994920       -0.94204187251678        1.06166794649119
C           -3.21379173635812       -0.65750784258302        1.28744890279247
C           -0.58890665234872        1.90977422416774        0.35916667292004
C           -1.16790254755996        3.11350588594652        0.74753308189548
C           -0.58219431954751        4.31416693066693        0.38588720629522
C            0.58220163147174        4.32265409251106       -0.36733474555652
C            1.17206317538062        3.13035334867453       -0.74950506558912
C            0.59683817768340        1.91828941176263       -0.38250045072158
C            1.15163384601321        0.62380053046759       -0.86854057958829
O            0.44207993099150       -0.16299849924944       -1.47950515279548
C            2.57776036098270        0.36449952527046       -0.60207776685461
C            3.23192570479190       -0.63183458326331       -1.33142862939130
C            4.55737298271022       -0.92217433776484       -1.09399706318405
C            5.25516592119403       -0.23197956597529       -0.10188001068103
N            6.60618635842039       -0.52990546819056        0.15152246806684
C            7.00837909741298       -1.01102156547072        1.40344935325468
C            6.10367490064374       -1.27022846897791        2.42662589289682
C            6.53533062610200       -1.75125252001810        3.65360166462956
C            7.87581161586551       -1.99532530779748        3.87636880221722
C            8.78760949889137       -1.77678691762173        2.85418533869598
C            8.36120486595061       -1.29874781111363        1.62809647170067
O            9.31949635733804       -1.14503708267457        0.65631164782451
C            8.90853372038398       -0.68802115477503       -0.57378036906764
C            9.88532270221459       -0.53445333816172       -1.54124174566322
C            9.55743327414406       -0.04256710981359       -2.79610508069444
C            8.25055485631427        0.31175775494185       -3.06560782342050
C            7.26783433805649        0.15726827677335       -2.09937257955229
C            7.57226889800057       -0.36828393216486       -0.84885915879895
C            4.60187020892749        0.75154105297223        0.64156761450708
C            3.27867816515075        1.05007674252365        0.39199770344897
H           -2.78810304102707        1.80537091722238       -1.00440184165184
H           -5.15799490860430        1.29324775152166       -1.41237420508024
H           -5.08743391641579       -1.08613254064496       -2.28573753310592
H           -5.87779534236561       -1.89743730019933       -4.44956413953459
H           -8.29312987070879       -2.31295604805474       -4.82124450930578
H           -9.88842666915547       -1.93531719870952       -2.95233249643707
H          -10.88880381044435       -0.78574027184036        1.34201773879842
H          -10.28186572884971        0.06541495253766        3.59768561535633
H           -7.92980479893447        0.69708371508350        4.05706940305286
H           -6.22576222737185        0.44058673463436        2.32396982133120
H           -5.04777793674510       -1.70803386377408        1.63162467591728
H           -2.65624600882000       -1.19712791280725        2.03098374395714
H           -2.08169219928351        3.09930812829838        1.32096046328441
H           -1.04311230208841        5.24246242946824        0.67771508998816
H            1.04126068911554        5.25698710335200       -0.64576479904065
H            2.08677128690050        3.12817482765141       -1.32494446628137
H            2.68339371099945       -1.15827318518850       -2.09233586998176
H            5.06912694710485       -1.67968859404640       -1.67143138507689
H            5.05472653139620       -1.13469828033074        2.25283992838804
H            5.81198791721476       -1.99395371873761        4.41015377684355
H            8.22098804575907       -2.42196508507940        4.80798480130929
H            9.84425493435234       -2.00647896368354        2.97160531902003
H           10.90867944196261       -0.76736632869154       -1.28314235662189
H           10.33520739097484        0.13115438206940       -3.52905020946174
H            7.99049339759574        0.77434621718402       -4.00957421711526
H            6.26113728027965        0.48375402486118       -2.30681420331998
H            5.14408507295469        1.26666531201590        1.42673888093135
H            2.78036183887532        1.79070872437814        0.99639622416066
