55

N     -2.281733   -6.010591    0.000154
C     -2.485519   -4.868004    0.000102
C     -2.746786   -3.457685    0.000050
C     -4.077976   -2.993058    0.000033
C     -4.365750   -1.621984   -0.000003
C     -3.310935   -0.724215   -0.000020
C     -1.975911   -1.191341   -0.000006
C     -1.681532   -2.551380    0.000026
C     -0.979930   -0.000008   -0.000015
C     -1.975897    1.191339   -0.000034
C     -1.681503    2.551375   -0.000036
C     -2.746746    3.457693   -0.000046
C     -2.485463    4.868009   -0.000041
N     -2.281665    6.010594   -0.000034
C     -4.077942    2.993081   -0.000055
C     -4.365731    1.622010   -0.000052
C     -3.310927    0.724229   -0.000040
C     -0.156625    0.000006    1.293051
C     -0.811894    0.000038    2.551776
C     -0.100027    0.000069    3.747728
C      1.283382    0.000060    3.714445
C      1.945758    0.000019    2.485636
C      1.248750   -0.000005    1.254491
N      1.954789   -0.000034    0.000007
C      3.390351   -0.000022    0.000015
C      4.098317   -1.211529    0.000001
C      5.493600   -1.209418   -0.000002
C      6.189208    0.000011    0.000009
C      5.493572    1.209423    0.000026
C      4.098290    1.211501    0.000029
C      1.248767   -0.000045   -1.254488
C      1.945794   -0.000063   -2.485624
C      1.283437   -0.000063   -3.714442
C     -0.099973   -0.000045   -3.747745
C     -0.811857   -0.000029   -2.551803
C     -0.156606   -0.000028   -1.293068
H     -4.902012   -3.705830    0.000053
H     -5.396970   -1.282870   -0.000012
H     -0.648840   -2.892191    0.000039
H     -0.648806    2.892172   -0.000026
H     -4.901967    3.705864   -0.000059
H     -5.396955    1.282906   -0.000051
H     -1.899116    0.000044    2.609001
H     -0.626240    0.000100    4.698479
H      1.854638    0.000082    4.638953
H      3.032914    0.000010    2.512407
H      3.557188   -2.154173   -0.000009
H      6.037530   -2.150430   -0.000013
H      7.276518    0.000024    0.000005
H      6.037479    2.150449    0.000037
H      3.557140    2.154131    0.000038
H      3.032950   -0.000074   -2.512381
H      1.854710   -0.000071   -4.638940
H     -0.626171   -0.000040   -4.698504
H     -1.899078   -0.000014   -2.609043
