76

C     -0.076797   -6.622869   -2.083547
C      1.134481   -5.965300   -1.893505
C      1.148493   -4.629030   -1.479983
C     -0.044075   -3.916321   -1.245516
C     -0.027005   -2.505734   -0.807072
N     -1.206954   -1.895527   -0.601640
C     -1.184879   -0.608154   -0.200955
C     -2.507965    0.013196    0.014137
C     -2.748629    1.371341   -0.261916
C     -4.008684    1.961780   -0.061893
C     -4.232688    3.382697   -0.368331
C     -5.231397    3.779824   -1.265033
C     -5.403252    5.130381   -1.525411
N     -4.660527    6.103608   -0.959624
C     -3.703780    5.708503   -0.095447
C     -3.454571    4.383124    0.225782
C     -5.050546    1.157506    0.426325
C     -4.862742   -0.204051    0.710451
C     -5.969135   -1.034328    1.214583
C     -6.304460   -2.245854    0.597907
C     -7.356172   -2.992923    1.105709
N     -8.090593   -2.624862    2.175154
C     -7.756664   -1.457913    2.762592
C     -6.724087   -0.641801    2.326386
C     -3.586811   -0.752150    0.496065
C      0.003905    0.066970    0.002388
C      1.175980   -0.626870   -0.233289
C      2.513616   -0.026457   -0.053375
C      2.769070    1.326156   -0.342051
C      4.039849    1.900547   -0.163975
C      4.275812    3.318627   -0.474719
C      3.993881    3.838447   -1.743467
C      4.228972    5.182704   -1.986980
N      4.715964    6.037800   -1.064823
C      4.986745    5.524257    0.152287
C      4.788146    4.194431    0.489465
C      5.078177    1.084452    0.312013
C      4.876496   -0.273820    0.602755
C      5.980495   -1.119152    1.086130
C      6.293343   -2.330403    0.457327
C      7.342975   -3.092786    0.946230
N      8.095515   -2.740273    2.008347
C      7.783492   -1.573065    2.607040
C      6.754895   -0.742115    2.189760
C      3.589711   -0.805201    0.412379
N      1.167529   -1.914114   -0.634404
C     -1.253661   -4.609912   -1.447930
C     -1.271957   -5.946148   -1.861391
H     -0.089337   -7.661052   -2.404732
H      2.071307   -6.488691   -2.066223
H      2.110921   -4.139108   -1.340302
H     -1.950518    1.985799   -0.676262
H     -5.862118    3.051895   -1.765595
H     -6.165759    5.473405   -2.219028
H     -3.122846    6.511103    0.350161
H     -2.673502    4.142018    0.939253
H     -6.033772    1.601362    0.581170
H     -5.764864   -2.603362   -0.273459
H     -7.643821   -3.935315    0.648391
H     -8.358620   -1.184715    3.624599
H     -6.508760    0.279221    2.858407
H     -3.419607   -1.806012    0.723136
H      0.017047    1.086392    0.364601
H      1.966348    1.955303   -0.723863
H      3.609834    3.208096   -2.539220
H      4.026824    5.618294   -2.961487
H      5.379417    6.232387    0.876512
H      5.021077    3.854777    1.493452
H      6.074925    1.509651    0.428501
H      5.738053   -2.675723   -0.409098
H      7.613740   -4.035288    0.478929
H      8.400371   -1.312519    3.462361
H      6.557567    0.177910    2.729957
H      3.411912   -1.855782    0.646599
H     -2.204075   -4.104721   -1.282752
H     -2.221256   -6.454541   -2.008942
