  92
 
 C          0.5096040266       -3.4309698259        1.0047341706
 C          0.3786560599       -2.3213754077       -0.0552759523
 C          0.4230603244       -2.9279436293       -1.4701774696
 C          1.5394553223       -1.3589340448        0.0867509345
 C          2.8304367914       -1.8309273894       -0.0747101674
 C          3.9379701067       -0.9925622072       -0.0005051060
 N          5.2226301501       -1.5105103612       -0.1744504814
 C          5.6227802035       -2.3554506410       -1.1926310100
 C          4.9080106115       -2.8240173654       -2.2859351266
 C          5.5651962975       -3.6445212507       -3.1833223446
 C          6.9040807153       -3.9862883356       -3.0103068710
 C          7.6294358422       -3.4972906829       -1.9411571739
 C          6.9904921405       -2.6719804813       -1.0265245719
 C          7.4296534237       -1.9800369061        0.1544267182
 C          8.6427921055       -1.9137892221        0.8250915007
 C          8.7216179301       -1.1525753151        1.9751620046
 C          7.6063423054       -0.4778307466        2.4654383523
 C          6.3875895584       -0.5299626273        1.8155524721
 C          6.3094510411       -1.2711879410        0.6452629844
 C          3.7402754679        0.3678103146        0.2293357856
 C          2.4665830878        0.8535998996        0.3988369922
 C          1.3502329068        0.0056802537        0.3537243837
 N          0.0879496619        0.5264872505        0.5412780688
 C         -0.0537639627        1.9171904952        0.8049993342
 C          0.3614224438        2.4397481258        2.0321199569
 C          0.2090841964        3.8019480159        2.2565275668
 C         -0.3317039348        4.6320224243        1.2912610952
 S         -0.4832105509        6.3278864463        1.7234583596
 C         -1.1196461436        7.0708545661        0.2543585483
 C         -1.2803525403        8.4466533390        0.2943114013
 C         -1.7764492993        9.1298037651       -0.8043632547
 C         -2.1125588788        8.4213041544       -1.9504768098
 C         -1.9482552091        7.0555401991       -1.9949839040
 C         -1.4516657545        6.3358108997       -0.8927874180
 C         -1.3066055399        4.8993454863       -1.0311925646
 O         -1.6686288801        4.3304646985       -2.1063571528
 C         -0.7456971912        4.1239836821        0.0385361577
 C         -0.5971095444        2.7335942793       -0.1629138675
 C         -1.0423270437       -0.2567109379        0.4424022170
 C         -2.3039082875        0.3078542353        0.6812202551
 C         -3.4512206392       -0.4409255523        0.5860258450
 C         -3.3709135277       -1.7930624114        0.2563855641
 N         -4.5225596402       -2.5742111542        0.1512921008
 C         -5.6621239282       -2.2439658558       -0.5591751451
 C         -5.9216928750       -1.1304503160       -1.3452647563
 C         -7.1478418066       -1.0620024573       -1.9796994591
 C         -8.0925956672       -2.0768259430       -1.8488810510
 C         -7.8285322469       -3.2003095431       -1.0895023678
 C         -6.6045232657       -3.2908162848       -0.4418095580
 C         -5.9992616802       -4.2955071711        0.3895121854
 C         -6.4331316045       -5.5220310773        0.8720122596
 C         -5.5906685434       -6.2454016147        1.6941149747
 C         -4.3397065191       -5.7492086288        2.0517163099
 C         -3.8864655278       -4.5299673318        1.5840475479
 C         -4.7150033777       -3.8135083644        0.7319209086
 C         -2.1187727184       -2.3625371406        0.0492630315
 C         -0.9515851561       -1.6249190113        0.1438429566
 H          0.4470149245       -3.0009132763        2.0026782561
 H          1.4617946270       -3.9453905083        0.9126266644
 H         -0.2826434355       -4.1660533433        0.8946175620
 H          0.3587640406       -2.1369835983       -2.2148871447
 H          1.3472537407       -3.4770425668       -1.6269329498
 H         -0.4059055165       -3.6123440489       -1.6253498486
 H          3.0014837342       -2.8817523068       -0.2482586952
 H          3.8781600625       -2.5429403401       -2.4457760807
 H          5.0294179926       -4.0239255203       -4.0407719801
 H          7.3812593626       -4.6322535996       -3.7318415248
 H          8.6730946739       -3.7440057564       -1.8190488783
 H          9.5026653901       -2.4507593458        0.4544973386
 H          9.6568891871       -1.0845637320        2.5101948403
 H          7.6942161147        0.0962858552        3.3757824163
 H          5.5247598498       -0.0187973139        2.2145802606
 H          4.5835365343        1.0404044370        0.2427964084
 H          2.3212351351        1.9110047286        0.5487898451
 H          0.7766207948        1.7951954932        2.7899719903
 H          0.5019821038        4.2281738052        3.2040295120
 H         -1.0093136743        8.9771533881        1.1953950582
 H         -1.8991035576       10.2008951025       -0.7615644215
 H         -2.5070988027        8.9413482230       -2.8110593012
 H         -2.2014141711        6.4879893031       -2.8774579824
 H         -0.9082229220        2.3314727784       -1.1147481595
 H         -2.3746443524        1.3474471245        0.9564317990
 H         -4.4099551188        0.0077476603        0.7932728540
 H         -5.1898180171       -0.3474259238       -1.4705176456
 H         -7.3755038961       -0.2035773880       -2.5935996153
 H         -9.0400147118       -1.9848074412       -2.3583510468
 H         -8.5535015378       -3.9953096898       -1.0027249822
 H         -7.4117009405       -5.8964423364        0.6127918690
 H         -5.9076599348       -7.2035654237        2.0776199606
 H         -3.7113472995       -6.3268115750        2.7134699288
 H         -2.9264906900       -4.1428184333        1.8904499295
 H         -2.0748542385       -3.4081174303       -0.2123033390
