  55
 
 C         -5.1262903039       -0.3949027425        2.8017701579
 C         -4.5158943530       -1.5949055691        2.4763022793
 C         -3.6633937072       -1.6772664691        1.3901604166
 C         -3.4082673264       -0.5596023740        0.5982597204
 C         -4.0109126100        0.6582466975        0.9548875248
 C         -4.8656837369        0.7332995930        2.0436371852
 O         -3.7798543177        1.8174396596        0.2670104542
 C         -2.9287208358        1.7641504182       -0.8001756969
 C         -2.6794832481        2.9483792861       -1.4752996324
 C         -1.8503969952        2.9530539966       -2.5840294526
 C         -1.2898328396        1.7668023173       -3.0302497435
 C         -1.5340424952        0.5824926605       -2.3615976554
 C         -2.3346702774        0.5618219142       -1.2192903308
 N         -2.5886414101       -0.6148984583       -0.5279171394
 C         -1.7006103431       -1.7036109813       -0.7037608392
 C         -2.1511225033       -2.9680810173       -1.0644629483
 C         -1.2576039725       -4.0213847437       -1.1624331724
 C          0.0903777673       -3.8309357503       -0.9014265028
 C          0.5782313670       -2.5734825880       -0.5462949029
 N          1.8731970683       -2.3461149556       -0.3095014595
 C          2.3243646782       -1.1262098712       -0.0272253417
 C          3.7166182679       -0.9027606096        0.2224821425
 C          4.6067421674       -1.9870385567        0.1535625628
 C          5.9455384024       -1.8156296860        0.3941333699
 C          6.4302845896       -0.5458903932        0.7108601225
 C          5.5746871122        0.5275271471        0.7797993056
 C          4.1988469745        0.3898101776        0.5385859779
 C          3.2764391128        1.5005377106        0.5975891544
 C          3.6756320173        2.8139468275        0.8885847501
 C          2.7729506895        3.8499235578        0.9287976377
 C          1.4199715187        3.6185748282        0.6750026681
 C          0.9941015295        2.3472114326        0.3913996162
 C          1.9013087738        1.2753628038        0.3490043843
 C          1.4204108327       -0.0350288876        0.0468033915
 N          0.1220025147       -0.2486364343       -0.1697515091
 C         -0.3348868092       -1.4637008941       -0.4564562452
 H         -5.7936130870       -0.3312999871        3.6463638192
 H         -4.6993966106       -2.4764414831        3.0705097709
 H         -3.1819065947       -2.6125828648        1.1546924592
 H         -5.3066313491        1.6884198619        2.2808586934
 H         -3.1439302334        3.8517640467       -1.1131719990
 H         -1.6524951480        3.8786567285       -3.1006462184
 H         -0.6575869391        1.7602426516       -3.9044196846
 H         -1.1069256944       -0.3406881670       -2.7206622753
 H         -3.1988679731       -3.1117112529       -1.2800646528
 H         -1.6119751546       -4.9991834082       -1.4497598849
 H          0.7949785407       -4.6424090781       -0.9954070327
 H          4.1999914458       -2.9566375517       -0.0918988019
 H          6.6221040280       -2.6557291557        0.3404476431
 H          7.4841513774       -0.4061966342        0.9027377841
 H          5.9821707084        1.4949408031        1.0266266744
 H          4.7138187670        3.0284447123        1.0860122731
 H          3.1131404528        4.8497538912        1.1557732374
 H          0.7152715599        4.4364197768        0.7020341503
 H         -0.0444837373        2.1373305870        0.1845387274
