  65
 
 N        -10.8848841586        0.0091560434        0.0027986421
 C         -9.7365070123        0.0071750887        0.0021468704
 C         -8.3251718458        0.0047844800        0.0014686781
 C         -7.6255186576        0.1166767280        1.2054307213
 C         -6.2457567089        0.1126278395        1.1978304856
 C         -5.5401892786        0.0006563728        0.0001761037
 C         -4.0625076301       -0.0009688612       -0.0003542357
 C         -3.3647778079        1.0835503909       -0.5532913021
 C         -4.0356670130        2.2151661449       -1.0888359054
 C         -3.3449761981        3.2623893079       -1.6170855164
 C         -1.9355782964        3.2509178973       -1.6324110617
 C         -1.2535852332        2.1947680458       -1.1115857666
 C         -1.9347134453        1.0785740624       -0.5572907717
 C         -1.2394663849       -0.0032967599       -0.0000938548
 C          0.2409938432       -0.0040182128        0.0001810646
 C          0.9477368618       -0.2810259439       -1.1661973722
 C          2.3293552368       -0.2789396199       -1.1703602208
 C          3.0304453442       -0.0025763981        0.0000463135
 N          4.4344803369       -0.0007839934       -0.0000861572
 C          5.2437612971       -1.0179506119       -0.4648387168
 C          4.8958693612       -2.2586382673       -0.9809265124
 C          5.9164888130       -3.1122138020       -1.3539722939
 C          7.2552381047       -2.7511413990       -1.2129723933
 C          7.6078739838       -1.5274669769       -0.6792347149
 C          6.5995956291       -0.6518440934       -0.2962686630
 C          6.5976913744        0.6566969944        0.2959467540
 C          7.6034013220        1.5353150116        0.6788245849
 C          7.2471711920        2.7579792510        1.2124897524
 C          5.9073655275        3.1151406313        1.3534504757
 C          4.8892538135        2.2585343135        0.9805005272
 C          5.2407987428        1.0188080126        0.4645672155
 C          2.3291528089        0.2724540947        1.1706452373
 C          0.9475353114        0.2731284507        1.1666407455
 C         -1.9365711434       -1.0840970726        0.5567829058
 C         -1.2573477264       -2.2013838557        1.1112033798
 C         -1.9411764677       -3.2565796873        1.6315632582
 C         -3.3505929545       -3.2658904299        1.6156467019
 C         -4.0394915093       -2.2174419527        1.0874850284
 C         -3.3666482258       -1.0867505881        0.5524390738
 C         -6.2471809096       -0.1093778055       -1.1968103127
 C         -7.6269600338       -0.1092757044       -1.2031257713
 H         -8.1708218883        0.2061468226        2.1337069274
 H         -5.7017354649        0.2029288534        2.1265698318
 H         -5.1149954212        2.2370820896       -1.0653531599
 H         -3.8719349171        4.1144562892       -2.0213995962
 H         -1.4035269505        4.0924266696       -2.0516585128
 H         -0.1737595080        2.1917442499       -1.1073045031
 H          0.4066804386       -0.4954239790       -2.0764663442
 H          2.8722337450       -0.4793315589       -2.0821390299
 H          3.8622614568       -2.5539689193       -1.0805369317
 H          5.6714493938       -4.0824029017       -1.7615069273
 H          8.0245969030       -3.4449776931       -1.5190517900
 H          8.6454661765       -1.2543546558       -0.5566333754
 H          8.6417901182        1.2652643422        0.5561866517
 H          8.0144811534        3.4541016689        1.5185290170
 H          5.6594801731        4.0846521357        1.7608746046
 H          3.8547698739        2.5508406217        1.0800602628
 H          2.8719461704        0.4733917403        2.0823543180
 H          0.4063639079        0.4869852155        2.0769696032
 H         -0.1775095301       -2.1999211488        1.1073293183
 H         -1.4106214949       -4.0990031397        2.0508753841
 H         -3.8790246111       -4.1172791895        2.0194650147
 H         -5.1188474592       -2.2377315363        1.0635664465
 H         -5.7043041344       -0.2013126206       -2.1260589175
 H         -8.1733753937       -0.1971504814       -2.1309002689
