  90
 
 C         -6.8340710798       -2.9304118383       -1.8893802578
 C         -5.6067374876       -2.5751940663       -2.4249401580
 C         -4.4367432491       -2.8798763136       -1.7578612718
 C         -4.4782185632       -3.5425640248       -0.5304295390
 N         -3.2967654674       -3.8442924824        0.1527945286
 C         -3.1918108941       -5.0250995573        0.8936901651
 C         -3.7807272135       -6.2039787037        0.4351798517
 C         -3.6733553621       -7.3674896812        1.1712384140
 C         -2.9737080510       -7.3803148509        2.3670359542
 C         -2.3823926315       -6.2139385743        2.8243690135
 C         -2.4906068974       -5.0432672442        2.0998190928
 C         -2.2189797888       -2.9489209253        0.1084152374
 C         -0.9061306033       -3.4417746848        0.0428753685
 C          0.1828040961       -2.5988108431       -0.0106463997
 C         -0.0470191190       -1.2290562967       -0.0217222130
 C         -1.3643547634       -0.7192013248        0.0620708995
 C         -2.4486298789       -1.5776814365        0.1319079355
 C         -1.2458129623        0.7116551891        0.0672710701
 C         -2.1755848517        1.7368330275        0.1190331514
 C         -1.7247562442        3.0511871697        0.0675930551
 N         -2.6391929906        4.1131168189        0.1051535491
 C         -2.3247366960        5.2762210772        0.8136335692
 C         -2.7202085441        6.5262297287        0.3361736489
 C         -2.4055823680        7.6715900589        1.0405709674
 C         -1.6876669743        7.5943920683        2.2230407929
 C         -1.2878706438        6.3563341292        2.6990892445
 C         -1.6040751899        5.2043454745        2.0062807751
 C         -3.8650552215        3.9992424755       -0.5567617345
 C         -3.9533515996        3.3173952961       -1.7711094085
 C         -5.1683153330        3.1990121708       -2.4165687982
 C         -6.3111710775        3.7619573950       -1.8721664847
 C         -6.2288924772        4.4436839894       -0.6689535639
 C         -5.0202919846        4.5600649791       -0.0109020752
 C         -0.3511701492        3.3209887439       -0.0396235869
 C          0.5855611116        2.3111338981       -0.0760412294
 C          0.1375716979        0.9979961420       -0.0092976087
 N          0.8479075467       -0.1817853242       -0.0609259660
 C          2.2444348273       -0.2956794255       -0.1413081860
 C          2.8295939290       -1.1058444802       -1.1103722424
 C          4.2021695251       -1.2190775243       -1.1818326156
 C          5.0309023033       -0.5213268173       -0.3009287113
 C          6.4869734733       -0.6412381598       -0.3821414218
 C          7.0870135434       -1.8568615385       -0.7031159965
 C          8.4620014635       -1.9805540017       -0.7669911775
 C          9.2998918432       -0.8931355083       -0.5254926716
 N         10.6271566968       -0.9737209680       -0.5848140209
 C         11.3857789300        0.0927875528       -0.3503677022
 C         10.8072131321        1.3059714145       -0.0396918122
 N          9.4890771669        1.4291335590        0.0342319680
 C          8.6882699424        0.3804419129       -0.1945437279
 C          7.3063305030        0.4645263824       -0.1296164125
 C          4.4303496869        0.2934168976        0.6610866971
 C          3.0583460350        0.4017527375        0.7470844929
 C         -5.7175340170       -3.8934220207        0.0063685750
 C         -6.8814502147       -3.5919868903       -0.6731167625
 H         -7.7462643817       -2.6932691847       -2.4153276483
 H         -5.5590296463       -2.0636622670       -3.3750512706
 H         -3.4813056781       -2.6108847778       -2.1837804726
 H         -4.3166484584       -6.1995767597       -0.5026989213
 H         -4.1320881966       -8.2735427763        0.8034852017
 H         -2.8896595305       -8.2924828640        2.9378526516
 H         -1.8392033930       -6.2130971491        3.7579533471
 H         -2.0376894594       -4.1326299609        2.4636622145
 H         -0.7535176077       -4.5106294334        0.0331158052
 H          1.1843908264       -2.9986455059       -0.0443582249
 H         -3.4540417215       -1.1919393777        0.2053826293
 H         -3.2306965190        1.5214317862        0.1919396185
 H         -3.2694459820        6.5904197493       -0.5917447071
 H         -2.7157464886        8.6329298664        0.6581860128
 H         -1.4413087612        8.4922682039        2.7689848070
 H         -0.7322290110        6.2859626978        3.6226525428
 H         -1.3007145793        4.2392831340        2.3849411094
 H         -3.0623131436        2.8869139530       -2.2040138527
 H         -5.2212530511        2.6701280725       -3.3568395907
 H         -7.2584011694        3.6699782850       -2.3813371791
 H         -7.1153072046        4.8810702586       -0.2335029332
 H         -4.9625463741        5.0810187098        0.9335912366
 H         -0.0290908516        4.3496025380       -0.1037066061
 H          1.6351274284        2.5397420654       -0.1779107529
 H          2.2017564532       -1.6278585693       -1.8174187492
 H          4.6424813077       -1.8339024819       -1.9524921995
 H          6.4732231512       -2.7283538654       -0.8749341762
 H          8.9207226404       -2.9284187406       -1.0022471326
 H         12.4544883155       -0.0283417648       -0.4143543059
 H         11.4027924535        2.1840493475        0.1509225029
 H          6.8731623061        1.4268963304        0.0942186370
 H          5.0491358463        0.8235280245        1.3692518990
 H          2.6064551548        1.0128546535        1.5145306886
 H         -5.7594015813       -4.3974848376        0.9608054836
 H         -7.8336477993       -3.8678336308       -0.2442953081
