  75
 
 C         -9.6568835358       -1.0196474854       -0.3164606812
 C         -9.3798067332        0.0875740377        0.4716080884
 C         -8.0690850980        0.5128869738        0.5934365090
 C         -7.0651961562       -0.1868539984       -0.0809610751
 C         -5.6493286811        0.2042047326        0.0092283592
 C         -5.2732936743        1.5266441328        0.2251207671
 C         -3.9271956656        1.8829956781        0.3152918742
 C         -3.5769274692        3.2947919044        0.5363185420
 C         -2.3352861059        3.8219499024        0.1706101913
 C         -2.0745944205        5.1583554999        0.4141275626
 C         -3.0547950174        5.9377578941        1.0102258345
 C         -4.2615603423        5.3301856857        1.3220224566
 N         -4.5188085334        4.0563364694        1.0952896931
 C         -2.9567785535        0.8959080232        0.2063748991
 C         -3.3178386418       -0.4320684176       -0.0196828780
 C         -2.2914307042       -1.4566597832       -0.1380086881
 N         -1.0284793489       -1.1195721428        0.0086925659
 C         -0.0282514052       -1.9984649784       -0.1158298792
 C          1.3010143917       -1.4435893302       -0.1084342341
 C          2.3760382168       -2.0089627588       -0.8174787448
 C          3.6222715315       -1.4264014818       -0.7985441590
 C          3.8408519974       -0.2529992939       -0.0776149538
 N          5.1337726913        0.3339396372       -0.0506847607
 C          6.1653105613       -0.2819853722        0.6398085938
 C          5.9720722077       -1.4525850916        1.3720779034
 C          7.0262138251       -2.0425469773        2.0445901502
 C          8.2906956453       -1.4759032322        2.0068062276
 C          8.4983926742       -0.3019021367        1.3022336610
 C          7.4474919853        0.2969551381        0.6264790739
 O          7.7090599949        1.4639887439       -0.0357399643
 C          6.6781641866        2.0665906078       -0.7014900400
 C          6.9560486544        3.2488875575       -1.3682733802
 C          5.9577127192        3.8975904684       -2.0756028852
 C          4.6833702818        3.3544925630       -2.1239296099
 C          4.3969455532        2.1748027730       -1.4619417884
 C          5.3834110216        1.5164076669       -0.7289097092
 C          2.7783943213        0.3455966961        0.6012725898
 C          1.5336880648       -0.2337014091        0.5768449369
 C         -0.3380213645       -3.4015043894       -0.2604908793
 C          0.5608090918       -4.4592062205       -0.1628483521
 C          0.1392824956       -5.7680697701       -0.3488918974
 C         -1.1920580202       -6.0387426587       -0.6208930482
 C         -2.1214847908       -5.0154128474       -0.6533711294
 C         -1.7257638956       -3.6885566327       -0.4454128955
 N         -2.6500137673       -2.7152286104       -0.3970128212
 C         -4.6651892710       -0.7685728176       -0.1274567211
 N         -7.3382318891       -1.2593961033       -0.8238576704
 C         -8.5916640528       -1.6554238972       -0.9363762374
 H        -10.6651031482       -1.3825079094       -0.4415960954
 H        -10.1742610834        0.6093533843        0.9862335714
 H         -7.8204408394        1.3586902931        1.2147091344
 H         -6.0098519727        2.3103887544        0.3031507663
 H         -1.5980988525        3.1998125982       -0.3115342747
 H         -1.1217557970        5.5880240796        0.1390737795
 H         -2.8921437588        6.9833002773        1.2201273932
 H         -5.0686317573        5.8894371977        1.7798521028
 H         -1.9072905996        1.1246473704        0.3052485635
 H          2.2129012441       -2.8815037985       -1.4305064379
 H          4.4365006466       -1.8661485121       -1.3565519095
 H          4.9880648716       -1.8916175199        1.4112570972
 H          6.8548911324       -2.9494892781        2.6030794480
 H          9.1124987881       -1.9389386127        2.5292730600
 H          9.4670522761        0.1703495758        1.2645917195
 H          7.9601846272        3.6391125588       -1.3217706182
 H          6.1794593330        4.8181724645       -2.5914644392
 H          3.9042298021        3.8484458888       -2.6832073479
 H          3.4069640728        1.7505595124       -1.5117315986
 H          2.9462749565        1.2599220565        1.1518898846
 H          0.7096160692        0.2191837263        1.1062138518
 H          1.5904394873       -4.2659308366        0.0959113774
 H          0.8536031350       -6.5745990911       -0.2740144145
 H         -1.5148521029       -7.0567190012       -0.7846646124
 H         -3.1674323035       -5.2120034362       -0.8321605408
 H         -4.9447026177       -1.7941892444       -0.3087373596
 H         -8.7449528879       -2.5297095451       -1.5575476473
