  89
 
 C         -6.0082025202       -2.8442886957       -1.1869692705
 C         -5.3873803593       -2.3794888902        0.1453853084
 C         -6.4872759805       -2.2098504492        1.2123571063
 C         -4.4166626059       -3.4378413868        0.6234475909
 C         -4.8737599152       -4.7187723259        0.9036838854
 C         -4.0306004208       -5.7119983130        1.3676824611
 C         -2.6886347996       -5.4293236678        1.5762134651
 C         -2.2044912599       -4.1711473405        1.2990685945
 C         -3.0514165948       -3.1683018557        0.8047046935
 N         -2.5290658589       -1.9241421756        0.5204795235
 C         -1.1218657442       -1.7211521388        0.6009039959
 C         -0.2806952527       -2.2467263971       -0.3846216037
 C          1.0599137900       -1.9619565647       -0.3693266063
 C          1.6235826445       -1.1160815742        0.6135412965
 C          3.0084647740       -0.7693005744        0.5312858746
 C          3.6024751431        0.2782548436        1.2529938014
 C          4.9426535240        0.5560935116        1.0496882536
 C          5.6545042088        1.6355646483        1.7055015629
 C          7.0569006544        1.6635781479        1.6527294708
 C          7.7707287768        2.6737950190        2.2594613616
 C          7.1108600726        3.6918948519        2.9338183651
 C          5.7242333664        3.6830236314        2.9891015066
 C          5.0029681544        2.6740076089        2.3857812235
 N          5.6627780887       -0.2218856913        0.1847859258
 C          5.0635469290       -1.2005839493       -0.4704917530
 C          5.8664352038       -2.0123912788       -1.3917785589
 C          7.1620422133       -1.6241147466       -1.7236260761
 C          7.9193911056       -2.3914425079       -2.5884262626
 C          7.3922861743       -3.5535363260       -3.1298974311
 C          6.1036089729       -3.9467127231       -2.8030245386
 C          5.3432014116       -3.1811446426       -1.9396634334
 N          3.7879710665       -1.4800541586       -0.3412669926
 C          0.7650868110       -0.6399109316        1.6281554564
 C         -0.5744801670       -0.9394082495        1.6216721988
 C         -3.3174313758       -0.8749281641        0.1034721955
 C         -2.7077934997        0.3609025521       -0.1491059227
 C         -3.4859830321        1.4205753474       -0.5544074989
 C         -4.8852167987        1.2774423296       -0.7195929067
 C         -5.4721770811        0.0391590130       -0.4872171062
 C         -4.7118215477       -1.0411075341       -0.0784764885
 C         -5.3795657527        2.5634414655       -1.1056369954
 C         -6.6440759389        3.0496246676       -1.4237068594
 C         -6.7724545490        4.3771237121       -1.7767006823
 C         -5.6598503328        5.2170086510       -1.8285389138
 C         -4.3927891209        4.7593533075       -1.5172262535
 C         -4.2574065120        3.4308376527       -1.1425106359
 N         -3.1193633088        2.7233201528       -0.8110423475
 C         -1.8203416532        3.2367906115       -0.6480617551
 C         -0.7379881896        2.6010038375       -1.2498379818
 C          0.5446835105        3.0748237949       -1.0409125084
 C          0.7561796103        4.1916238104       -0.2490824163
 C         -0.3222243034        4.8363342748        0.3349697886
 C         -1.6069060212        4.3600174314        0.1452320206
 H         -5.2288455287       -2.9705274702       -1.9363476869
 H         -6.7217227090       -2.1126004276       -1.5541715083
 H         -6.5226978145       -3.7925147267       -1.0624173293
 H         -7.0024337511       -3.1490476748        1.3893755061
 H         -6.0463186093       -1.8764213348        2.1499502931
 H         -7.2209303405       -1.4743786854        0.8969412608
 H         -5.9164823810       -4.9545021462        0.7589839652
 H         -4.4189675794       -6.6976156266        1.5741106867
 H         -2.0216355836       -6.1887363784        1.9553880934
 H         -1.1631358962       -3.9446880047        1.4664253629
 H         -0.7020835340       -2.8653739722       -1.1643144945
 H          1.7134967382       -2.3513606218       -1.1346312735
 H          3.0160628060        0.8641835062        1.9410251268
 H          7.5640136508        0.8663294144        1.1301341684
 H          8.8507127935        2.6723790571        2.2087800056
 H          7.6698541364        4.4850757124        3.4080801341
 H          5.2018759200        4.4766439743        3.5054705642
 H          3.9241582342        2.7022819684        2.4289878155
 H          7.5558150454       -0.7145164824       -1.2953483501
 H          8.9234188794       -2.0835341114       -2.8426648859
 H          7.9855847178       -4.1527714025       -3.8051343173
 H          5.6930514310       -4.8538061379       -3.2226049663
 H          4.3399107686       -3.4757199239       -1.6705058227
 H          1.1604395646       -0.0388449405        2.4324885141
 H         -1.2207396916       -0.5637606299        2.4026505349
 H         -1.6472629595        0.4830698753       -0.0155042772
 H         -6.5356150820       -0.0651401287       -0.6294261927
 H         -7.5036622797        2.3972833466       -1.3962909235
 H         -7.7449059374        4.7755365270       -2.0254098851
 H         -5.7908249160        6.2482802110       -2.1218050449
 H         -3.5358926061        5.4132684906       -1.5740787614
 H         -0.9037386218        1.7432741700       -1.8843903102
 H          1.3817943452        2.5701162136       -1.5009935341
 H          1.7594183125        4.5578612386       -0.0892211350
 H         -0.1614237404        5.7075919517        0.9527013774
 H         -2.4464043912        4.8440901448        0.6218833163
