  70
 
 C          6.3442545368       -0.3723309986        0.2736115492
 C          4.9625211264       -0.2546006211        0.9483967164
 C          5.1144651561       -0.3590905572        2.4793714928
 C          4.0939490781       -1.3947549083        0.4646676560
 C          4.4818015975       -2.7041558416        0.6875636352
 C          3.7355209943       -3.7843697432        0.2400617976
 C          2.5604976528       -3.5525202631       -0.4767820974
 C          2.1480682719       -2.2669148331       -0.7143037141
 C          2.8861610682       -1.1652837347       -0.2377810055
 N          2.4339765550        0.1131847704       -0.4702659362
 C          1.2011141837        0.2952831023       -1.1570780326
 C          1.2070546753        0.6470491768       -2.5281875219
 C          0.0043099315        0.8161990472       -3.1875591375
 C         -1.2008131806        0.6528464625       -2.5306869240
 C         -1.1992373071        0.3009465729       -1.1596464855
 N         -2.4343548802        0.1243130086       -0.4753630255
 C         -3.1310284126        1.2386262132       -0.0679490880
 C         -2.6025529172        2.5214968316       -0.3129720691
 C         -3.2816200945        3.6508182776        0.0679638704
 C         -4.5111895964        3.5368397576        0.7173544274
 C         -5.0258154748        2.2764357421        0.9815513038
 C         -4.3675090303        1.1169292309        0.6096550465
 C         -4.9658287385       -0.2325282191        0.9407370195
 C         -6.3479238424       -0.3412603132        0.2651877705
 C         -5.1188892029       -0.3393993153        2.4714370554
 C         -4.1033465586       -1.3764223869        0.4549069303
 C         -4.4986189025       -2.6841473915        0.6746543567
 C         -3.7580827880       -3.7674621339        0.2251599934
 C         -2.5812963922       -3.5405527305       -0.4903139495
 C         -2.1614368479       -2.2567167538       -0.7244813895
 C         -2.8938715256       -1.1521277116       -0.2462035889
 C         -0.0002989248        0.1260770422       -0.4869932115
 C          3.1364245072        1.2244833280       -0.0645128203
 C          2.6151780789        2.5098203622       -0.3125027023
 C          3.3003017179        3.6361396129        0.0663613263
 C          4.5289459779        3.5167448876        0.7165864093
 C          5.0363923765        2.2540342026        0.9838539778
 C          4.3718402104        1.0974235273        0.6141575922
 H          6.2363443857       -0.2991975712       -0.8072111593
 H          6.8081989875       -1.3258666065        0.5089163350
 H          7.0055757215        0.4219166250        0.6077012119
 H          4.1394509056       -0.2714959385        2.9555762929
 H          5.7545018649        0.4325186927        2.8582422448
 H          5.5496075678       -1.3140449717        2.7596371938
 H          5.3970060374       -2.9034740896        1.2245099377
 H          4.0667935101       -4.7923840720        0.4359766147
 H          1.9779508302       -4.3825044028       -0.8482782668
 H          1.2483617429       -2.0863550251       -1.2809234709
 H          2.1494257356        0.7718669431       -3.0375122936
 H          0.0060442564        1.0806399709       -4.2355075645
 H         -2.1415002680        0.7821694599       -3.0419653840
 H         -1.6484584000        2.6092978710       -0.8081553129
 H         -2.8616102189        4.6253020476       -0.1325530216
 H         -5.0539046233        4.4192439093        1.0193350713
 H         -5.9722292762        2.2089655641        1.4966342641
 H         -6.8175421787       -1.2923972296        0.4989430944
 H         -7.0047706176        0.4563684921        0.6000685585
 H         -6.2390837592       -0.2672759521       -0.8154827216
 H         -5.5583254949       -1.2929997975        2.7496146081
 H         -4.1437054020       -0.2570153012        2.9482298899
 H         -5.7556142605        0.4542526742        2.8516214261
 H         -5.4152177694       -2.8795226376        1.2106631489
 H         -4.0951155665       -4.7740663655        0.4184899075
 H         -2.0031245482       -4.3729369022       -0.8632763592
 H         -1.2601839230       -2.0798698604       -1.2898242142
 H         -0.0021312870       -0.1450315868        0.5597163197
 H          1.6618023427        2.6018714295       -0.8082745847
 H          2.8858022624        4.6125157289       -0.1364378140
 H          5.0764668188        4.3967579694        1.0168575675
 H          5.9821476072        2.1824868481        1.4996014985
