  54
 
 N         -0.7449853907        1.6258640359       -3.1375798799
 C          0.2578091090        1.3442002140       -2.6182777161
 C          1.4426256609        0.9926618357       -2.0014550622
 C          2.0967274321       -0.2266025306       -2.3438589624
 C          3.2583665601       -0.5810814900       -1.7271481757
 C          3.8178819964        0.2065904823       -0.6939591668
 C          5.1305404964       -0.1535722594       -0.0731428503
 C          4.9831367164       -0.4200016815        1.4281404236
 C          3.8885393029       -1.4664794107        1.6462713906
 C          2.5498818722       -1.0075046833        1.1642187714
 C          1.7562410168       -1.8160276872        0.3115231197
 C          0.4533781653       -1.5142545239        0.0457140470
 C         -0.1790463082       -0.4042828751        0.6617964946
 N         -1.5242576721       -0.1733724847        0.4879184868
 C         -2.3836355800       -1.2279965427        0.1427743460
 C         -3.3793018997       -1.0295168467       -0.8174637086
 C         -4.2290103208       -2.0640909480       -1.1537076763
 C         -4.1041141467       -3.3034533406       -0.5411233012
 C         -3.1196405706       -3.5023433964        0.4163354911
 C         -2.2627788840       -2.4761103209        0.7604586463
 C         -2.0906242147        1.0875897922        0.6922061148
 C         -3.3542662094        1.1954360368        1.2841087754
 C         -3.9145302776        2.4376202008        1.4988646332
 C         -3.2322184196        3.5895301062        1.1325173034
 C         -1.9804632270        3.4874131988        0.5426462452
 C         -1.4090029930        2.2506347974        0.3246426103
 C          0.5961231728        0.3896032809        1.5483169768
 C          1.9021524730        0.0890296247        1.7909808096
 C          3.2264271548        1.4702252049       -0.4391198798
 C          2.0775442716        1.8539365437       -1.0584477743
 H          1.6601134253       -0.8464744872       -3.1151533909
 H          3.7577978663       -1.4965954913       -2.0139764532
 H          5.8468128423        0.6620003380       -0.2164631503
 H          5.5324105793       -1.0451475338       -0.5593881329
 H          5.9291935820       -0.7750678713        1.8416071496
 H          4.7165542594        0.5055848845        1.9392166345
 H          3.8217204638       -1.6789991889        2.7188362835
 H          4.1658008850       -2.3906888926        1.1358089703
 H          2.2042282736       -2.6824741264       -0.1513025686
 H         -0.1110410121       -2.1172300207       -0.6495714397
 H         -3.4614662299       -0.0688829260       -1.3036027155
 H         -4.9897556525       -1.9049561415       -1.9030963823
 H         -4.7713852530       -4.1086858531       -0.8075861513
 H         -3.0252253706       -4.4610179052        0.9040457222
 H         -1.5087535165       -2.6200621928        1.5201191288
 H         -3.8795699492        0.3009067322        1.5839518363
 H         -4.8875544584        2.5103938685        1.9611116134
 H         -3.6742842095        4.5594190187        1.3012544382
 H         -1.4503943031        4.3780922793        0.2394724715
 H         -0.4548132876        2.1637251170       -0.1683335009
 H          0.1194794545        1.2015490703        2.0764563153
 H          2.4543151570        0.6807257009        2.5056948970
 H          3.7045999602        2.1382789805        0.2636095850
 H          1.6423110375        2.8255028436       -0.8644284370
