  81
 
 F         -9.8297544776        2.0413082810        0.8749721994
 C         -9.1521064228        1.7750741464       -0.2580628587
 F         -9.4803913739        0.5264915535       -0.6110309759
 F         -9.6745372746        2.5861590368       -1.1975454398
 C         -7.6734359957        1.9832596236       -0.0926080150
 C         -7.2360892877        3.2769112001        0.2563594210
 C         -5.9028799951        3.5338744082        0.4109707342
 C         -4.9652027178        2.5008291835        0.2195747454
 N         -3.6455447107        2.7648311546        0.2773760462
 C         -2.7983219168        1.7800236262        0.1111297838
 C         -1.3726358074        2.1109363389        0.0619847534
 C         -0.8564663265        3.0611045337        0.9411679455
 C          0.4984003487        3.3202625438        0.9781048647
 C          1.3606271516        2.6419613412        0.1206363362
 N          2.7528785962        2.8412348642        0.1888151833
 C          3.3252647135        4.0799147638       -0.1098956856
 C          2.5630184383        5.1827028011       -0.4725194441
 C          3.1667789604        6.3957219692       -0.7676122475
 C          4.5398093664        6.5231344135       -0.7143387311
 C          5.3165778924        5.4227021739       -0.3827293430
 C          4.7205436559        4.2100340209       -0.0913334126
 O          5.5562749456        3.1573609623        0.1904750503
 C          4.9762608510        1.9623999394        0.5353349452
 C          5.8236549719        0.9278777084        0.8864185214
 C          5.3069323777       -0.2968217407        1.2828197925
 C          3.9397220042       -0.4715237375        1.3448069255
 C          3.0854483933        0.5600810439        0.9864725992
 C          3.5873622920        1.7807199084        0.5531958928
 C          0.8394541412        1.7414294786       -0.8068587555
 C         -0.5126267216        1.4791047890       -0.8378705073
 C         -3.2645357523        0.4241045509       -0.0200678546
 C         -2.3417067600       -0.7128132229        0.0077409015
 C         -1.2604139985       -0.7465397497        0.8898251043
 C         -0.3540633296       -1.7828295491        0.8378646757
 C         -0.5102944984       -2.8083131683       -0.0930434067
 N          0.4663954639       -3.8187974815       -0.1836259335
 C          1.7680123052       -3.4909182841       -0.5730000463
 C          2.1111490574       -2.2168396291       -1.0072614666
 C          3.4110607213       -1.9238566649       -1.3905039866
 C          4.3850692618       -2.9002892841       -1.3526861734
 C          4.0504458766       -4.1864631890       -0.9552955196
 C          2.7541034893       -4.4859683449       -0.5793945472
 O          2.4867845255       -5.7870514093       -0.2346576588
 C          1.1867370159       -6.1078809631        0.0709620207
 C          0.9197374428       -7.4327754061        0.3608208505
 C         -0.3619744839       -7.8274974877        0.7154366954
 C         -1.3672753932       -6.8853452457        0.7929835092
 C         -1.1062129067       -5.5554113042        0.4994634199
 C          0.1648899734       -5.1498193826        0.1142955121
 C         -1.6216126666       -2.8106093333       -0.9318634866
 C         -2.5317964278       -1.7749473515       -0.8742137742
 N         -4.5401633346        0.1691805506       -0.1695000304
 C         -5.4165127301        1.1891194222       -0.0931935353
 C         -6.7917519972        0.9479725930       -0.2662811765
 H         -7.9697350447        4.0569812872        0.3916350193
 H         -5.5405496452        4.5172152552        0.6644729695
 H         -1.5310295668        3.5661614670        1.6150540037
 H          0.9004751154        4.0305565776        1.6850707402
 H          1.4901068770        5.0912715658       -0.5366050266
 H          2.5503021775        7.2373924063       -1.0431921094
 H          5.0138933297        7.4653621050       -0.9389809921
 H          6.3926844547        5.4829464793       -0.3525409177
 H          6.8867452395        1.1038229245        0.8481000402
 H          5.9746694213       -1.1000532377        1.5501068969
 H          3.5262777843       -1.4131844048        1.6707149877
 H          2.0178862770        0.4158875640        1.0448416137
 H          1.5082626859        1.2476049040       -1.4960892201
 H         -0.9083327593        0.7941452971       -1.5729137818
 H         -1.1405257560        0.0329509510        1.6274831910
 H          0.4884600934       -1.8068887674        1.5130022664
 H          1.3550755129       -1.4482651387       -1.0467751381
 H          3.6551969855       -0.9249365544       -1.7168415680
 H          5.3994509244       -2.6738805319       -1.6395521418
 H          4.7830732845       -4.9773204925       -0.9353765567
 H          1.7320715366       -8.1400273589        0.3110996352
 H         -0.5608498497       -8.8636592082        0.9386662308
 H         -2.3648311980       -7.1736959111        1.0863870194
 H         -1.8963493091       -4.8257308130        0.5821758128
 H         -1.7519087929       -3.6145742161       -1.6408162913
 H         -3.3856482298       -1.7566043493       -1.5335900143
 H         -7.1199624749       -0.0479897952       -0.5185460856
