93

C      8.110487   -0.154440   -1.951435
C      7.613636   -0.388549   -0.501005
C      8.817981   -0.360124    0.475835
C      6.664765    0.758639   -0.126353
C      7.135232    2.095676   -0.148068
C      6.316192    3.170449    0.189347
C      5.003993    2.935122    0.558528
C      4.520391    1.626619    0.585947
C      5.329477    0.515985    0.244894
N      4.802527   -0.822682    0.280408
C      3.435050   -1.034012    0.658848
C      3.104635   -1.309891    1.994139
C      1.774142   -1.522178    2.359760
C      0.761845   -1.444071    1.395953
C     -0.639231   -1.684662    1.823181
O     -0.867344   -2.504151    2.707901
C     -1.774028   -0.954228    1.205965
C     -2.986853   -1.631557    1.032399
C     -4.081135   -0.971717    0.461258
N     -5.316268   -1.664082    0.275162
C     -5.445770   -2.959924   -0.231529
C     -4.491709   -3.880813   -0.715356
C     -4.927733   -5.121465   -1.189765
C     -6.278009   -5.441717   -1.207367
C     -7.225420   -4.517606   -0.762184
C     -6.810363   -3.256409   -0.279234
C     -7.521274   -2.119370    0.203259
C     -8.896135   -1.847380    0.381092
C     -9.301734   -0.627320    0.926206
C     -8.358190    0.315745    1.309146
C     -6.992181    0.071171    1.140866
C     -6.583241   -1.145262    0.553271
C     -3.963410    0.371462    0.076496
C     -2.755811    1.054942    0.275002
N     -2.638858    2.426191   -0.103990
C     -3.091117    2.973512   -1.306139
C     -3.691013    2.385115   -2.440218
C     -4.022074    3.198128   -3.528576
C     -3.750663    4.559220   -3.508586
C     -3.124839    5.135597   -2.401118
C     -2.776518    4.334870   -1.290392
C     -2.113626    4.615836   -0.060377
C     -1.574067    5.797150    0.495549
C     -1.003760    5.771775    1.769954
C     -0.978428    4.592396    2.501659
C     -1.504346    3.410114    1.972981
C     -2.043775    3.426491    0.668765
C     -1.661000    0.393375    0.845103
C      1.085615   -1.185720    0.057936
C      2.417728   -0.976916   -0.306641
C      5.627110   -1.953046   -0.057575
C      5.107593   -3.269741   -0.024897
C      5.884360   -4.384085   -0.345275
C      7.207162   -4.211959   -0.710902
C      7.743111   -2.927155   -0.754413
C      6.972215   -1.781532   -0.432767
H      7.273578   -0.171526   -2.661330
H      8.618511    0.809040   -2.068600
H      8.827941   -0.916499   -2.275140
H      9.562079   -1.129871    0.244090
H      9.353419    0.595293    0.451461
H      8.489324   -0.524229    1.509811
H      8.162237    2.316299   -0.431692
H      6.706160    4.184265    0.163891
H      4.351476    3.761496    0.826360
H      3.484354    1.492320    0.885113
H      3.890086   -1.365512    2.744173
H      1.529383   -1.748505    3.395664
H     -3.071718   -2.658428    1.385390
H     -3.432027   -3.647566   -0.739964
H     -4.198602   -5.841345   -1.554837
H     -6.602317   -6.409993   -1.579668
H     -8.281891   -4.768862   -0.794917
H     -9.639703   -2.589728    0.105028
H    -10.360489   -0.424823    1.066205
H     -8.683107    1.253276    1.754702
H     -6.274835    0.811376    1.481735
H     -4.812479    0.886183   -0.368294
H     -3.886272    1.318559   -2.496940
H     -4.489612    2.754585   -4.405410
H     -4.011527    5.178429   -4.363724
H     -2.897225    6.197960   -2.401827
H     -1.610213    6.729208   -0.061797
H     -0.594102    6.684378    2.195247
H     -0.554188    4.588871    3.503497
H     -1.504458    2.510632    2.581100
H     -0.717213    0.914730    0.986260
H      0.321037   -1.160612   -0.713905
H      2.673626   -0.776790   -1.344802
H      4.074049   -3.456303    0.255312
H      5.449915   -5.379233   -0.305895
H      7.823218   -5.071242   -0.962056
H      8.786261   -2.827649   -1.046891
