51

C     -4.626212    0.449590   -2.708930
C     -3.398840    0.069164   -3.275978
C     -2.275302   -0.133369   -2.473479
C     -2.405564    0.051542   -1.102952
C     -3.639181    0.434018   -0.528827
C     -4.752952    0.634445   -1.328253
C     -3.479695    0.550551    0.906791
C     -4.396127    0.895650    1.887073
C     -3.968427    0.931938    3.218281
C     -2.640262    0.626175    3.557492
C     -1.715003    0.278164    2.572444
C     -2.143897    0.242879    1.251788
C     -1.345653   -0.102400   -0.007963
C     -0.714742   -1.492792    0.034746
C     -1.362943   -2.720338    0.136892
C     -0.599080   -3.880286    0.040744
C      0.780736   -3.799973   -0.186091
C      1.423151   -2.558857   -0.285648
C      0.689375   -1.396215   -0.120546
C      1.064438    0.007736   -0.190300
C     -0.122739    0.792100   -0.215515
C     -0.100564    2.164750   -0.399711
C      1.126614    2.799341   -0.570465
C      2.302310    2.032257   -0.468443
N      3.606881    2.445381   -0.584412
C      4.475785    1.426549   -0.293483
C      5.875809    1.442274   -0.233328
C      6.523917    0.272565    0.163508
C      5.794175   -0.857922    0.508342
C      4.394825   -0.852568    0.435809
C      3.704497    0.296124   -0.012927
C      2.320504    0.649086   -0.223973
H     -5.489078    0.601556   -3.353317
H     -3.323671   -0.069637   -4.352031
H     -1.325960   -0.428461   -2.910437
H     -5.706705    0.927838   -0.903011
H     -5.424650    1.134136    1.638535
H     -4.672593    1.200455    4.002420
H     -2.329580    0.661110    4.599159
H     -0.687790    0.042185    2.834000
H     -2.439974   -2.774850    0.264612
H     -1.080270   -4.852758    0.108653
H      1.357951   -4.713829   -0.307099
H      2.473180   -2.535320   -0.542247
H     -1.023554    2.737084   -0.430840
H      1.169657    3.870397   -0.745637
H      3.887637    3.392604   -0.789252
H      6.443322    2.336779   -0.469423
H      7.609230    0.254544    0.227258
H      6.309618   -1.751410    0.851877
H      3.857397   -1.729980    0.774095
