66
 xtb: 6.7.1 (edcfbbe)
C           -2.90527957385681       -4.17749628396670       -0.00573164897901
C           -2.55103832769977       -3.57574069964931        1.19104268001749
C           -1.94374763760179       -2.33322621293127        1.18950897386210
C           -1.68445662616621       -1.67956648816938       -0.00939111478575
C           -1.04051271724648       -0.34262529369532       -0.01037207497814
C           -1.84543055548753        0.79029265513536       -0.01500825771036
C           -3.31717037013315        0.61811340145467       -0.01532288630780
C           -4.01854500971920        0.54588169352524       -1.21332093037188
C           -5.38817367065976        0.35116685095042       -1.21051461746344
C           -6.07092438788713        0.23016826442460       -0.01148075724059
C           -5.37872369331320        0.30650381913443        1.18572893271104
C           -4.00884552951069        0.49901309341609        1.18470499013607
C           -1.25749947966682        2.06122657711597       -0.01121294916546
C           -2.05659770569602        3.24347950324919       -0.01401591216035
C           -1.49612223456274        4.47350066873689       -0.00997871134425
C           -0.08023619043853        4.63172476022530       -0.00031114020892
C            0.52190832571499        5.89134680443081        0.00551504912804
C            1.89893776510132        6.01869906016487        0.01790706297366
C            2.70485958682911        4.89557968186425        0.02503269379431
C            2.14263948487817        3.61757243802488        0.01873183038660
C            2.93933046572567        2.44146131440850        0.02375390613260
C            2.40334648692477        1.19161838491859        0.01219125077274
C            3.37053310216155        0.06705836652248        0.00798529385587
C            3.82685127867697       -0.46318055730368       -1.19449532248185
C            4.80411613496870       -1.44167499960739       -1.20104006948783
C            5.34343186611829       -1.89418478132893       -0.00718866049776
C            4.90671726746576       -1.35750694815006        1.19373357094752
C            3.93167354079920       -0.37677304836979        1.20135860197344
C            0.97648394305758        1.01180214046699        0.00214299849957
C            0.35263973625023       -0.24602456563572       -0.00142797824247
C            1.06806510389961       -1.54472768075989        0.00441481613839
C            1.40135831146637       -2.15934572454423        1.20637133727223
C            1.95975042894624       -3.42396684678978        1.21366052888822
C            2.18348588554651       -4.09233885746745        0.02078725958248
C            1.84733806984701       -3.48908122983750       -1.18055613809397
C            1.28697427811499       -2.22554536993164       -1.18866356643699
C            0.15606732911673        2.17669940399955       -0.00179841413202
C            0.73502616278844        3.47168132633302        0.00503697890517
C           -2.04736781438952       -2.28624164731876       -1.20607062868908
C           -2.65251345698380       -3.52975762468176       -1.20418253208654
H           -3.37850343692298       -5.14880158575320       -0.00149500368529
H           -2.81282813211376       -4.04704039924576        2.13322884258235
H           -1.73348575363697       -1.83376629497258        2.12992435741957
H           -3.47867815380510        0.61418882629209       -2.13741891161419
H           -5.91856451460668        0.26624266849951       -2.13864936504981
H           -7.14050603786174        0.07742623552236       -0.00266945015982
H           -5.91354450518274        0.24412672643322        2.13232980393063
H           -3.47345063740542        0.59060347229538        2.12887083266187
H           -3.13068368575052        3.12627349268123       -0.00562439587331
H           -2.11144390727377        5.36220211714414       -0.00375473715365
H           -0.10448773166000        6.77221438730200        0.00009791510790
H            2.34756751134025        7.00193910567606        0.00625970026710
H            3.78086520804585        4.99687723223378        0.01001815165080
H            4.01530925695362        2.55574434168114        0.00935929421746
H            3.47832819202789       -0.04855403797300       -2.13074729180012
H            5.21421978184161       -1.79617875607197       -2.13667284891609
H            6.10693830886067       -2.65851615410382       -0.00343761598894
H            5.26637705310842       -1.75303606439910        2.13319270626589
H            3.53155217610490       -0.00425200893898        2.13416016206814
H            1.14833599698284       -1.68234975631687        2.13406590452655
H            2.14502839544180       -3.93304738558230        2.14046010323342
H            2.61633604659519       -5.08215827110054        0.00800816312623
H            2.08758029886487       -3.96633042262846       -2.12899303058514
H            1.08992079945756       -1.71608859415204       -2.13058759299515
H           -1.78622207491295       -1.80973017243288       -2.13524691609493
H           -2.86432646802372       -4.02356420171265       -2.13694146684615
