45

C     -4.709591    3.591599    0.081862
C     -3.320541    3.662659    0.023228
C     -2.557152    2.490797   -0.012010
C     -3.169737    1.225584    0.010848
C     -4.572215    1.177625    0.070772
C     -5.336475    2.348434    0.105714
O     -5.283622   -0.000088    0.098656
C     -4.572150   -1.177755    0.070544
C     -5.336346   -2.348611    0.105258
C     -4.709395   -3.591736    0.081121
C     -3.320344   -3.662707    0.022426
C     -2.557017   -2.490797   -0.012575
C     -3.169669   -1.225624    0.010593
N     -2.427580    0.000004   -0.023928
C     -1.003435    0.000051   -0.093894
C     -0.234770   -0.000299    1.073826
C      1.161917   -0.000250    0.998252
C      1.829610    0.000145   -0.240408
C      3.309548    0.000152   -0.248503
N      4.043270   -0.000401    0.848495
C      5.391693   -0.000241    0.538311
C      6.453805   -0.000704    1.465116
C      7.775862   -0.000472    1.008252
C      8.049223    0.000212   -0.355894
C      7.012635    0.000679   -1.294622
C      5.689156    0.000437   -0.823163
S      4.219367    0.000869   -1.712194
C      1.044338    0.000487   -1.405674
C     -0.354386    0.000446   -1.333654
H     -5.302646    4.501860    0.109613
H     -2.825464    4.630489    0.005445
H     -1.475635    2.586378   -0.056212
H     -6.420243    2.286586    0.152010
H     -6.420115   -2.286834    0.151592
H     -5.302401   -4.502034    0.108687
H     -2.825214   -4.630504    0.004404
H     -1.475498   -2.586310   -0.056852
H     -0.723504   -0.000614    2.045101
H      1.734681   -0.000532    1.925181
H      6.235104   -0.001236    2.528292
H      8.592436   -0.000834    1.726512
H      9.082032    0.000386   -0.698477
H      7.227014    0.001214   -2.358958
H      1.495819    0.000779   -2.394330
H     -0.942365    0.000712   -2.248762
