  51
 
 C         -4.5802349285        0.6719761872       -2.7329650843
 C         -3.3741207413        0.2657814015       -3.2860975476
 C         -2.2789807469       -0.0106006435       -2.4786733999
 C         -2.4154558614        0.1301400044       -1.1141680099
 C         -3.6327115208        0.5417612909       -0.5499269413
 C         -4.7224029980        0.8139039760       -1.3616611975
 C         -3.4736758596        0.6003583961        0.8946044954
 C         -4.3636750061        0.9475241930        1.8984794282
 C         -3.9285053641        0.9089339508        3.2136799075
 C         -2.6299321825        0.5312619361        3.5237067735
 C         -1.7322730994        0.1832225083        2.5229462419
 C         -2.1611047998        0.2201802232        1.2137359027
 C         -1.3839115728       -0.1119086377       -0.0402093339
 C         -0.8316953734       -1.5155097587       -0.0508266651
 C         -1.5206949454       -2.6917523626        0.0017264139
 C         -0.8112329510       -3.8988372295       -0.0523721369
 C          0.5815112182       -3.8902430535       -0.2018090365
 C          1.2916082260       -2.7196137865       -0.2581191640
 C          0.6050871930       -1.4811706437       -0.1363631793
 C          1.0393355813       -0.1566739629       -0.1233680657
 C         -0.1291711186        0.7128453021       -0.1920893684
 C         -0.0528332895        2.0414488277       -0.4454247418
 C          1.2199719217        2.6573409612       -0.6110350979
 C          2.3487848535        1.8701122202       -0.4562514005
 N          3.6593077168        2.2866695417       -0.4970730566
 C          4.4800577286        1.2518308510       -0.1700849444
 C          5.8605898566        1.2244040172       -0.0643309856
 C          6.4536846001        0.0418794470        0.3385953402
 C          5.6710153990       -1.0786124002        0.6583845215
 C          4.3011186899       -1.0657157547        0.5525232720
 C          3.6614262127        0.0981838928        0.0906345537
 C          2.3241428311        0.4876862948       -0.1433653567
 H         -5.4191646996        0.8804591293       -3.3814706136
 H         -3.2865212102        0.1620535920       -4.3580092833
 H         -1.3400870623       -0.3289824636       -2.9087988721
 H         -5.6637365456        1.1296958897       -0.9364281778
 H         -5.3758917153        1.2417020651        1.6627622724
 H         -4.6089867647        1.1757917145        4.0096477546
 H         -2.3134303333        0.5069192116        4.5564421494
 H         -0.7212838682       -0.1119322976        2.7648575483
 H         -2.5992421934       -2.6973804107        0.0772184040
 H         -1.3420838235       -4.8372210961       -0.0062434345
 H          1.1014924263       -4.8343310888       -0.2894152416
 H          2.3547667900       -2.7291833381       -0.4312817944
 H         -0.9460621104        2.6427895445       -0.5267619882
 H          1.2947376914        3.7145136253       -0.8082778169
 H          3.9604195600        3.2196764348       -0.7286076474
 H          6.4505935840        2.1035946879       -0.2774296910
 H          7.5272076617       -0.0166717655        0.4337439705
 H          6.1670978068       -1.9733826474        1.0070421508
 H          3.7250076807       -1.9280664218        0.8451120876
