  92
 
 C          0.1335584665       -3.0841316643        0.9820278418
 C          0.0669813964       -1.9502816649       -0.0580587672
 C          0.0291748560       -2.5362406321       -1.4819450691
 C          1.3070411478       -1.0859304390        0.0751660404
 C          2.5551803842       -1.6609473357       -0.1038722915
 C          3.7277274765       -0.9213813280       -0.0137479170
 N          4.9718254274       -1.5453829200       -0.2110534321
 C          5.3222340779       -2.3210452339       -1.2959238217
 C          4.5903998344       -2.6302797672       -2.4345339457
 C          5.1898012242       -3.4269596147       -3.3908961341
 C          6.4906490153       -3.9020338427       -3.2310830366
 C          7.2323135238       -3.5784479856       -2.1122827320
 C          6.6514916231       -2.7788525502       -1.1357854185
 C          7.1174438747       -2.2447202146        0.1130348173
 C          8.3145384700       -2.3446749465        0.8111233824
 C          8.4269841053       -1.7034129766        2.0287372366
 C          7.3593209868       -0.9812990657        2.5599032868
 C          6.1594933737       -0.8663843118        1.8848633030
 C          6.0478558865       -1.4893271861        0.6492410709
 C          3.6508147254        0.4362225244        0.2711884240
 C          2.4197474830        1.0225983727        0.4678998274
 C          1.2385561856        0.2803605385        0.3722293023
 N          0.0187250348        0.9042397519        0.5725741342
 C         -0.0036957127        2.2927875069        0.8805105234
 C          0.0815514678        2.7143958587        2.2110530390
 C          0.0569351861        4.0568314730        2.5054589010
 C         -0.0535648533        5.0086389764        1.4867882665
 S         -0.0779638089        6.6766713223        1.9958010771
 C         -0.2405764601        7.5665485489        0.4992954519
 C         -0.3029668941        8.9561233322        0.6191662703
 C         -0.4292010695        9.7482109018       -0.5000701484
 C         -0.4945503736        9.1638122487       -1.7623387052
 C         -0.4334234804        7.7959011175       -1.8820764955
 C         -0.3065574598        6.9633473686       -0.7595940446
 C         -0.2541303562        5.5145921175       -0.9999155362
 O         -0.3101636417        5.0649199713       -2.1423081535
 C         -0.1369077260        4.6029209180        0.1519071329
 C         -0.1089504094        3.2300214895       -0.1251548131
 C         -1.1795163168        0.2170840343        0.4746471521
 C         -2.3853290243        0.8930396930        0.6848672857
 C         -3.5950654795        0.2376811555        0.6123552491
 C         -3.6252408620       -1.1182739157        0.3113549443
 N         -4.8462259463       -1.8102154592        0.2299711992
 C         -5.9350397898       -1.4423459646       -0.5317676429
 C         -6.0834701253       -0.3706051547       -1.4017585476
 C         -7.2885846631       -0.2392202489       -2.0644147581
 C         -8.3251565005       -1.1525156567       -1.8781461131
 C         -8.1762295695       -2.2325510389       -1.0310066273
 C         -6.9730499850       -2.3875306781       -0.3537984350
 C         -6.4739006044       -3.3711349201        0.5657006236
 C         -7.0163020169       -4.5200916686        1.1280696324
 C         -6.2494671904       -5.2494236257        2.0149346112
 C         -4.9619573674       -4.8378692629        2.3560535844
 C         -4.4006446476       -3.6994100589        1.8107315213
 C         -5.1574185489       -2.9746741427        0.8998682288
 C         -2.4283846598       -1.7889274305        0.0931316380
 C         -1.2011446452       -1.1506572005        0.1768371449
 H          0.1449178697       -2.6668930363        1.9874997644
 H          1.0312854045       -3.6808395063        0.8485971565
 H         -0.7257479454       -3.7424125195        0.8903980763
 H         -0.0103971774       -1.7314516865       -2.2143177736
 H          0.9135483584       -3.1367000301       -1.6758374605
 H         -0.8442463030       -3.1673188644       -1.6192533018
 H          2.6373090007       -2.7157898419       -0.3145551145
 H          3.5897244422       -2.2502617322       -2.5748921178
 H          4.6400190553       -3.6843517680       -4.2848391169
 H          6.9235545192       -4.5246278103       -4.0006852325
 H          8.2454688317       -3.9342643342       -1.9964692621
 H          9.1372150014       -2.9161292393        0.4072423112
 H          9.3506599780       -1.7665779640        2.5855154556
 H          7.4725915212       -0.5028407890        3.5220974234
 H          5.3328458812       -0.3163466717        2.3087490777
 H          4.5502625537        1.0301072960        0.3279302927
 H          2.3703208339        2.0777010847        0.6873841364
 H          0.1649124238        1.9806906558        2.9981669859
 H          0.1208115830        4.3962585694        3.5278944617
 H         -0.2503533706        9.3951246199        1.6039681958
 H         -0.4768605808       10.8212760562       -0.3956022942
 H         -0.5924373037        9.7807105232       -2.6421585193
 H         -0.4818815920        7.3137295746       -2.8476501909
 H         -0.1746320941        2.9257003331       -1.1598695728
 H         -2.3731622630        1.9467648042        0.9157240411
 H         -4.5140291118        0.7724931308        0.7977355329
 H         -5.2811620405        0.3340922042       -1.5620327178
 H         -7.4299621613        0.5878489491       -2.7453395391
 H         -9.2538843854       -1.0128897296       -2.4121353072
 H         -8.9755084650       -2.9466210241       -0.8977392587
 H         -8.0191170477       -4.8317314386        0.8754863769
 H         -6.6519390278       -6.1477682710        2.4600929606
 H         -4.3918797301       -5.4212153843        3.0647784103
 H         -3.4100112579       -3.3773884145        2.0938874040
 H         -2.4738054448       -2.8378448603       -0.1547308425
