  94
 
 C          7.3009849833       -1.0303412811        2.3609465203
 C          6.8648312460       -0.0400619764        1.2656985984
 C          7.8895949077        1.1019441684        1.1396100138
 C          6.7975442245       -0.7757911786       -0.0589302371
 C          7.9449340756       -1.3696382339       -0.5678971029
 C          7.9540755635       -2.0273904735       -1.7834674353
 C          6.7907629013       -2.0851261381       -2.5291692261
 C          5.6362516408       -1.5056910319       -2.0464509781
 C          5.6185856747       -0.8642805063       -0.8048740989
 N          4.4384469145       -0.2965653757       -0.3401276474
 C          3.2622904448       -0.4146570105       -1.1198648839
 C          2.5942415473       -1.6351318585       -1.1909631456
 C          1.4383366453       -1.7438952093       -1.9420220811
 C          0.9628377529       -0.6360733046       -2.6175424866
 S         -0.5891365003       -0.7574373026       -3.5086165470
 O         -0.7742756669       -2.1122882955       -3.9528175564
 O         -0.6565892765        0.3038043693       -4.4765851370
 C         -1.7790371388       -0.4158127505       -2.2046551331
 C         -2.3654642547       -1.4698240229       -1.5392653492
 C         -3.2746535504       -1.2025859510       -0.5144529443
 N         -3.9212510378       -2.2516171818        0.1373063798
 C         -4.0843757517       -2.3923237690        1.5047442617
 C         -3.5905461642       -1.6144417328        2.5405737179
 C         -3.8787492699       -2.0000397595        3.8361797249
 C         -4.6307353621       -3.1408173939        4.1035865285
 C         -5.0981632023       -3.9380405805        3.0776035047
 C         -4.8211100395       -3.5685261412        1.7683839686
 C         -5.1193037998       -4.1602908031        0.4932831719
 C         -5.8211205311       -5.2970022866        0.1143151586
 C         -5.9465318497       -5.5773105327       -1.2315275853
 C         -5.3969342939       -4.7318489961       -2.1920600786
 C         -4.6948536016       -3.5946232153       -1.8387316725
 C         -4.5430573443       -3.3228173003       -0.4871887622
 C         -3.5551551474        0.1192877006       -0.1756483693
 C         -2.9405018812        1.1726410247       -0.8492195145
 N         -3.2518202080        2.4935464049       -0.5279577417
 C         -3.2978228151        3.0388488761        0.7430721797
 C         -2.9684998118        2.4686272162        1.9630131024
 C         -3.0737531480        3.2539539985        3.0954593164
 C         -3.4852209216        4.5820915311        3.0216766664
 C         -3.7837724583        5.1654817754        1.8062373419
 C         -3.6853937303        4.3945947189        0.6557762784
 C         -3.8864415260        4.6744323939       -0.7393596497
 C         -4.2852760705        5.8090051881       -1.4336769589
 C         -4.4033746341        5.7350397458       -2.8070874874
 C         -4.1441396634        4.5459709091       -3.4843182513
 C         -3.7466205597        3.4037152811       -2.8148010485
 C         -3.6026516899        3.4797943224       -1.4374599017
 C         -2.0356499047        0.8974659403       -1.8747143486
 C          1.6180847085        0.5792438288       -2.5615172673
 C          2.7752129730        0.6912417050       -1.8129057229
 C          4.3802176579        0.3911740779        0.8648605348
 C          3.1597582708        0.9067567439        1.3109401969
 C          3.0737129321        1.6021432739        2.4987752553
 C          4.2056336560        1.7877796407        3.2711660069
 C          5.4076626714        1.2536725547        2.8462882101
 C          5.5226796927        0.5487375939        1.6556437195
 H          7.3812929129       -0.5340697287        3.3240245141
 H          8.2653608606       -1.4707714714        2.1239669895
 H          6.5694579131       -1.8316089138        2.4477227410
 H          7.9763924847        1.6507198078        2.0731931910
 H          8.8712737988        0.7160565373        0.8798824225
 H          7.5766438286        1.7954073045        0.3612789878
 H          8.8635824664       -1.3180288636       -0.0035060277
 H          8.8631884214       -2.4803266234       -2.1480119411
 H          6.7786431822       -2.5774911998       -3.4898238954
 H          4.7373157473       -1.5439459537       -2.6421947969
 H          2.9893356079       -2.4865218446       -0.6574565967
 H          0.9041221305       -2.6770810656       -2.0245752633
 H         -2.1200132647       -2.4788869473       -1.8270055330
 H         -2.9842846784       -0.7431679612        2.3478713239
 H         -3.5082093493       -1.4054922421        4.6579766867
 H         -4.8381922886       -3.4081649888        5.1288011134
 H         -5.6631833824       -4.8341803514        3.2839882084
 H         -6.2610202592       -5.9412597885        0.8603181856
 H         -6.4850703721       -6.4576563688       -1.5486861541
 H         -5.5230716641       -4.9672065433       -3.2381007803
 H         -4.2892754414       -2.9419351265       -2.5962537260
 H         -4.2922496117        0.3307989280        0.5841684315
 H         -2.6232115079        1.4485525003        2.0295632889
 H         -2.8271243527        2.8287915057        4.0570305210
 H         -3.5586484787        5.1630998997        3.9286696759
 H         -4.0824747281        6.2008884681        1.7458289767
 H         -4.5016519067        6.7249381935       -0.9051197123
 H         -4.7092740003        6.6058766886       -3.3671924727
 H         -4.2581605075        4.5128547002       -4.5573650949
 H         -3.5643928091        2.4861665685       -3.3527938071
 H         -1.5447263813        1.6886723128       -2.4168220512
 H          1.2244187717        1.4120100241       -3.1224709441
 H          3.3076776798        1.6285976156       -1.7546231467
 H          2.2675952387        0.7553076278        0.7224039256
 H          2.1201526425        1.9949961366        2.8188177362
 H          4.1530868282        2.3338514229        4.2004542303
 H          6.2799991899        1.3915023509        3.4667777862
