33

N      6.423515    2.531601   -0.000635
C      5.492238    1.842001   -0.000401
C      4.322737    1.008337   -0.000123
C      3.067629    1.624853    0.000112
C      1.896982    0.888080    0.000311
N      0.737482    1.575044    0.000413
C     -0.351737    0.798634    0.000467
C     -0.304671   -0.599844    0.000443
N      0.834291   -1.302721    0.000423
C      1.963415   -0.549848    0.000329
C      3.225106   -1.154996    0.000163
C      3.296657   -2.590573    0.000190
N      3.398901   -3.745950    0.000232
C      4.407572   -0.388729   -0.000090
C      5.693263   -1.032616   -0.000358
N      6.733340   -1.542770   -0.000576
C     -1.667963   -1.089808    0.000240
C     -2.224409   -2.353626    0.000091
C     -3.626913   -2.460180   -0.000171
C     -4.455606   -1.313851   -0.000296
C     -3.889531   -0.022575   -0.000124
C     -4.542799    1.226763   -0.000236
C     -3.794681    2.427198   -0.000075
C     -2.388050    2.417068    0.000202
C     -1.745783    1.194566    0.000291
C     -2.499995    0.025242    0.000145
H      2.994349    2.713756    0.000115
H     -1.598226   -3.240963    0.000156
H     -4.086000   -3.447433   -0.000323
H     -5.536192   -1.436205   -0.000567
H     -5.629275    1.274236   -0.000471
H     -4.321009    3.380241   -0.000179
H     -1.824638    3.345067    0.000303
