  161
 
 C        -13.0368881124        1.4813291655        4.7733544687
 C        -12.9478876274        0.1321697166        4.0441748526
 C        -14.3535156739       -0.2418335244        3.5634127632
 C        -12.4736896338       -0.9556500775        5.0197451325
 C        -11.9490373537        0.2457908146        2.9011501000
 C        -10.6182550535        0.5762265150        3.1935205292
 C         -9.6433177051        0.6945354183        2.2236772194
 C        -10.0046221204        0.4647342378        0.9039916980
 C        -11.3439927999        0.1573793292        0.5794154405
 C        -12.3039981592        0.0452355862        1.5752375314
 C        -11.3985351945        0.0419324193       -0.8535292215
 C        -12.4221121243       -0.2600095684       -1.7406725391
 C        -12.1590108958       -0.3238971468       -3.1011646682
 C        -13.2332583283       -0.6443374009       -4.1310094019
 C        -13.3503193708        0.5268027908       -5.1182126906
 C        -14.6093573378       -0.8694798578       -3.4966084717
 C        -12.8414540875       -1.9236152686       -4.8860707074
 C        -10.8469296699       -0.0957836923       -3.5391334556
 C         -9.8098963736        0.2052056971       -2.6794944695
 C        -10.0912988391        0.2941197110       -1.3237304014
 N         -9.2550718610        0.5464882104       -0.2534634635
 C         -7.8920563162        0.8406734388       -0.3310562182
 C         -6.9694438695        0.1761901946        0.4844104353
 C         -5.6294781478        0.4587244205        0.3962097854
 C         -5.1334588877        1.4323978487       -0.4975799150
 C         -3.7298517953        1.7308674629       -0.5842678295
 C         -3.2724991988        2.9970614290       -1.0385465277
 C         -1.9468586415        3.3115782733       -1.1299891831
 C         -0.9786427357        2.3452145030       -0.7837832134
 C         -1.4268929300        1.0656492397       -0.3295886391
 C         -2.7482861876        0.7682094453       -0.2211247821
 C         -0.2405163270        0.1717362328       -0.0380296552
 C          0.9223848355        1.1093438179       -0.3445106578
 C          2.2507818919        0.8576201089       -0.2345697824
 C          3.1995804090        1.8522315194       -0.5962171423
 C          4.6075614619        1.5931535038       -0.4917879113
 C          5.1140154718        0.6393580541        0.4196654674
 C          6.4547733931        0.3673012434        0.5102542856
 C          7.3736356996        1.0316540769       -0.3109880678
 N          8.7354822757        0.7399173852       -0.2333967707
 C          9.7636157787        1.6612896514       -0.1735980595
 C          9.7245725052        3.0447156968       -0.1048425421
 C         10.9223955704        3.7320995328       -0.0227495374
 C         12.1624967388        3.0870850734        0.0038341707
 C         13.4793979589        3.8478696715        0.0776971658
 C         14.3224701830        3.5040086435       -1.1599215457
 C         14.2322115707        3.4314102365        1.3504831365
 C         13.2895311988        5.3673750271        0.1152578393
 C         12.1863866769        1.6967693846       -0.0318634509
 C         11.0025597853        0.9834271676       -0.1131329723
 C         10.6982184613       -0.4227127845       -0.1387653803
 C         11.4895513229       -1.5623095058       -0.1205932943
 C         10.8968227594       -2.8151377630       -0.1815722135
 C         11.7019269024       -4.1066157298       -0.1529624658
 C         11.2696377413       -4.9396904191        1.0633013319
 C         13.2098693512       -3.8585655707       -0.0471841389
 C         11.4391616742       -4.8962872723       -1.4442311628
 C          9.5005403118       -2.8881143906       -0.2828407013
 C          8.6897379122       -1.7713934228       -0.3053738331
 C          9.2919459464       -0.5249157280       -0.2108502705
 C          6.8961095382        1.9911643002       -1.2120609892
 C          5.5547210456        2.2655108735       -1.2952921146
 C          2.6985853853        3.0973268313       -1.0637424214
 C          1.3626367760        3.3648370932       -1.1531110824
 C          0.4270753472        2.3703218248       -0.7935150927
 C         -0.1632947693       -1.0174287657       -0.9626855772
 C         -0.6421913578       -0.9336398401       -2.2600995197
 C         -0.4924850410       -1.9845470276       -3.1484487315
 C          0.1534126036       -3.1384565525       -2.7367870003
 C          0.6319521330       -3.2439476496       -1.4463187114
 C          0.4801761254       -2.1885475076       -0.5434971110
 N          0.9367593739       -2.3110943951        0.7602034539
 C          1.7616088938       -3.4225578345        1.0958159840
 C          3.1176249642       -3.3715871422        0.7987314076
 C          3.9348273516       -4.4411934394        1.1206571546
 C          3.4026823769       -5.5617049159        1.7368153265
 C          2.0486819887       -5.6160002491        2.0259972884
 C          1.2254526557       -4.5505233958        1.7062648305
 C          0.5166844955       -1.4364558253        1.7507610445
 C          0.7463275718       -1.7188687845        3.0998601607
 C          0.2940962143       -0.8635597968        4.0845594322
 C         -0.3934553394        0.2900810363        3.7459281975
 C         -0.5951056185        0.5935176647        2.4107724070
 C         -0.1434393226       -0.2480882079        1.4069630477
 C         -6.0837667848        2.0965411732       -1.3031019057
 C         -7.4224656898        1.8053507372       -1.2291783688
 H        -13.3529535666        2.2619360291        4.0838228360
 H        -13.7611949799        1.4216342620        5.5832623396
 H        -12.0780409561        1.7690638996        5.1956989566
 H        -14.3503044072       -1.2034522626        3.0550439852
 H        -15.0207788971       -0.3170085542        4.4199014515
 H        -14.7528053561        0.5161552863        2.8932586711
 H        -13.1884841261       -1.0670007930        5.8326101143
 H        -11.5064631289       -0.7100342718        5.4494148234
 H        -12.3852632587       -1.9101477733        4.5041529269
 H        -10.3303352429        0.7541617601        4.2184943283
 H         -8.6341600041        0.9709340400        2.4897507190
 H        -13.3159841719       -0.1911464160        1.2921064694
 H        -13.4077030110       -0.4459711684       -1.3479879830
 H        -12.4155490113        0.6976763957       -5.6450322927
 H        -13.6146944188        1.4401559873       -4.5885306600
 H        -14.1233269338        0.3191767900       -5.8554160488
 H        -14.5916325769       -1.7147366057       -2.8122598620
 H        -15.3365837816       -1.0850379837       -4.2770602447
 H        -14.9437274392        0.0169733690       -2.9622260338
 H        -13.6170501555       -2.1880562853       -5.6019806664
 H        -12.7189359648       -2.7494004170       -4.1877289032
 H        -11.9084973917       -1.7955721889       -5.4280424555
 H        -10.6220507351       -0.1610618552       -4.5928161606
 H         -8.8089984786        0.3532342125       -3.0562948171
 H         -7.3199454725       -0.5808283328        1.1710162361
 H         -4.9444787670       -0.0618683974        1.0481041771
 H         -4.0034382057        3.7551752661       -1.2788046174
 H         -1.6345075367        4.2931402838       -1.4568810521
 H         -3.0526493723       -0.2184810010        0.0963590466
 H          2.5931467325       -0.1138942762        0.0874684011
 H          4.4365843974        0.1459814483        1.1003834537
 H          6.8167457242       -0.3380942357        1.2441542443
 H          8.7873593700        3.5806505037       -0.1021798406
 H         10.8746809984        4.8073139370        0.0261410376
 H         15.2625652076        4.0514498970       -1.1367566795
 H         13.7866335805        3.7762312583       -2.0674057463
 H         14.5479723530        2.4420395957       -1.2038321292
 H         15.1692562314        3.9792698401        1.4270192028
 H         14.4591504286        2.3689275558        1.3487365615
 H         13.6314069863        3.6501258029        2.2312972793
 H         14.2630246928        5.8517657281        0.1631923342
 H         12.7214803208        5.6702508435        0.9920888944
 H         12.7828536401        5.7220050850       -0.7795598368
 H         13.1198951997        1.1571556120        0.0084161512
 H         12.5589616385       -1.4472008712       -0.0637823512
 H         11.4325335917       -4.3775934080        1.9810535103
 H         11.8505615873       -5.8584224767        1.1133158436
 H         10.2175117655       -5.2052125002        1.0088965053
 H         13.5750371106       -3.2950235512       -0.9029398815
 H         13.7330311706       -4.8127046860       -0.0263914515
 H         13.4554017300       -3.3215987928        0.8664031318
 H         11.7168305575       -4.3010193362       -2.3120906308
 H         10.3914136514       -5.1675478859       -1.5392615896
 H         12.0287314686       -5.8108587482       -1.4498170121
 H          9.0257687429       -3.8549061777       -0.3524406112
 H          7.6199177685       -1.8717132526       -0.4085529852
 H          7.5927464417        2.4886922429       -1.8711051894
 H          5.2144170295        2.9785072750       -2.0306707595
 H          3.4037436631        3.8760188422       -1.3157592081
 H          1.0161967646        4.3322105785       -1.4880317193
 H         -1.1327198208       -0.0254623549       -2.5787477024
 H         -0.8714887348       -1.8984561932       -4.1555413606
 H          0.2822370817       -3.9639106574       -3.4212520797
 H          1.1232327714       -4.1513052952       -1.1293405669
 H          3.5232731222       -2.4977298260        0.3102552723
 H          4.9889458401       -4.3967558562        0.8908880821
 H          4.0419709650       -6.3943695977        1.9890956773
 H          1.6303576091       -6.4913741698        2.5001887216
 H          0.1678226497       -4.5851152393        1.9236621275
 H          1.2841310928       -2.6125089223        3.3765080071
 H          0.4810518281       -1.1012645603        5.1214300690
 H         -0.7538125756        0.9584586734        4.5132417826
 H         -1.1016378206        1.5074411959        2.1362766751
 H         -5.7524654018        2.8349972286       -2.0171866405
 H         -8.1285099925        2.3364451142       -1.8510156857
