41

C     -5.554159    2.566468    0.374903
C     -4.395725    3.047364   -0.232301
C     -3.265202    2.232076   -0.322712
C     -3.285415    0.925462    0.183075
C     -2.092221    0.104806    0.078388
N     -0.831206    0.620408    0.267451
C      0.012016   -0.389372    0.134753
C      1.461966   -0.277682    0.306147
C      2.163690   -1.121171    1.173725
C      3.547341   -0.991079    1.323062
C      4.255198   -0.006568    0.617026
C      5.645344    0.136737    0.754611
C      6.333247    1.126791    0.051074
C      5.640707    1.986502   -0.796411
C      4.258740    1.857587   -0.943373
C      3.552125    0.865232   -0.245052
C      2.161316    0.722066   -0.383358
N     -0.665375   -1.547153   -0.229988
C     -0.183476   -2.820221   -0.557486
C     -1.047196   -3.792210   -0.894203
C     -2.467427   -3.491711   -0.922529
C     -2.935444   -2.265234   -0.622589
C     -2.023338   -1.232221   -0.255578
C     -4.449286    0.458986    0.807763
C     -5.580389    1.274968    0.898757
H     -6.432471    3.202265    0.449484
H     -4.367039    4.057935   -0.630781
H     -2.361147    2.618879   -0.789125
H      1.639607   -1.875744    1.755814
H      4.068415   -1.659568    2.004900
H      6.203921   -0.522474    1.415191
H      7.409079    1.227865    0.167778
H      6.174358    2.759946   -1.342559
H      3.733935    2.540492   -1.608027
H      1.607693    1.397395   -1.034524
H      0.886791   -2.978089   -0.540707
H     -0.714378   -4.789199   -1.161436
H     -3.147320   -4.287402   -1.212451
H     -3.998761   -2.055030   -0.675480
H     -4.480566   -0.533479    1.249192
H     -6.477949    0.905379    1.387578
