  60
 
 O          6.2618009746       -1.7727955990        1.1785185764
 C          5.7632167030       -0.7192660003        1.5146527422
 O          6.5126828195        0.3553093493        1.7952816103
 C          4.3142264881       -0.4844038417        1.6555832752
 C          3.4343758257       -1.5361198222        1.3981426876
 C          2.0735998072       -1.3483391283        1.5235857795
 C          1.5637870698       -0.1105947942        1.9069309925
 C          0.0759116769        0.0885299196        2.0283751112
 C         -0.5733155080        0.1372433246        0.6495632232
 C          0.1368233124        1.1464247112       -0.1934517229
 C         -0.1933645315        2.4948451030       -0.0731598795
 C          0.5042989374        3.4496212006       -0.7831235522
 C          1.5538282092        3.0726934168       -1.6208618243
 C          2.2808469234        4.1211926356       -2.3639901813
 O          2.0390176891        5.3070967969       -2.2920956932
 O          3.2561517357        3.6453145559       -3.1475143775
 C          1.8926171836        1.7254821803       -1.7359303862
 C          1.1895424667        0.7733421821       -1.0250749402
 C         -1.1312250676       -1.1275016306       -0.0099640968
 C         -1.1395802935       -2.3944715492        0.7176725377
 C         -1.0321362657       -3.5882652195        0.0855621613
 C         -0.9110342846       -3.6776825670       -1.3207870162
 C         -0.8231199561       -4.9815271653       -1.9471667506
 O         -0.8357898398       -6.0485444572       -1.3510111965
 O         -0.7214665431       -4.9390176228       -3.2954472006
 C         -0.8924205862       -2.4759014609       -2.0654263411
 C         -1.0017587815       -1.2684786310       -1.4589542901
 C         -2.1027301121        0.0439155203        0.5286083986
 C         -2.9060482677       -0.2229779092        1.7173175206
 C         -4.1600804445        0.2696863537        1.8619285403
 C         -4.7677634919        1.0634669838        0.8613528918
 C         -6.1202111933        1.5458703458        1.0565766593
 O         -6.8098223715        1.3231865082        2.0409266277
 O         -6.5911811349        2.2942016499        0.0325417586
 C         -4.0210312982        1.3551165341       -0.3031829395
 C         -2.7645381617        0.8754608566       -0.4731538559
 C          2.4443770014        0.9350171731        2.1617348656
 C          3.8082850996        0.7559672327        2.0405825816
 H          7.4556395390        0.1486081534        1.6888570970
 H          3.8413767255       -2.4917238783        1.1026944571
 H          1.3996655546       -2.1673658325        1.3205062496
 H         -0.3378546134       -0.7105975036        2.6380729683
 H         -0.1253277319        1.0394537389        2.5265594433
 H         -1.0059177829        2.7893182012        0.5739596061
 H          0.2550122960        4.4970624246       -0.7034198537
 H          3.7032488696        4.3705167441       -3.6138583026
 H          2.7069052682        1.4337303199       -2.3798582137
 H          1.4583788096       -0.2682303714       -1.1116493145
 H         -1.2395612509       -2.3892962296        1.7890920348
 H         -1.0413601761       -4.5116502841        0.6460518337
 H         -0.6681932208       -5.8412583707       -3.6467870088
 H         -0.7944957393       -2.5368195933       -3.1380439870
 H         -0.9776555710       -0.3775919607       -2.0626990185
 H         -2.4926020882       -0.8183798266        2.5119514171
 H         -4.7346467620        0.0620946075        2.7525861807
 H         -7.4968536534        2.5805268255        0.2278078172
 H         -4.4737962605        1.9707858384       -1.0646250942
 H         -2.2228551833        1.1347511402       -1.3667567295
 H          2.0597026774        1.8991655998        2.4591020779
 H          4.4883773242        1.5686888727        2.2411825621
