  64
 
 C          7.3317192189       -3.0418756269       -1.8530092827
 C          6.0609830978       -3.4027076661       -1.4098290987
 C          5.2375020184       -2.4995399591       -0.7658237203
 C          5.7122859053       -1.2090788721       -0.5780923100
 C          7.0101284779       -0.8407737947       -1.0026316783
 C          7.8190074776       -1.7667931631       -1.6481523059
 C          7.1926881372        0.5291657597       -0.6139221408
 C          8.2358494622        1.4340222102       -0.7609165485
 C          8.0737704492        2.7155061742       -0.2742226791
 C          6.8845545329        3.1036770624        0.3393986385
 C          5.8326462414        2.2221544277        0.4971015978
 C          5.9981276818        0.9255923693        0.0308037875
 N          5.1129608290       -0.1329894732        0.0440366059
 C          3.8241774504       -0.1130775131        0.5968100309
 C          3.6251168678        0.3337164577        1.9005298683
 C          2.3554961784        0.3751520515        2.4345009184
 C          1.2481418801       -0.0374760033        1.6881582556
 N          0.0000090570        0.0000455529        2.2816050831
 C         -1.2481299914        0.0375473106        1.6881700771
 C         -2.3554751977       -0.3750695246        2.4345323811
 C         -3.6251007716       -0.3336548276        1.9005715512
 C         -3.8241761179        0.1131083723        0.5968435144
 N         -5.1129640319        0.1329964855        0.0440793079
 C         -5.7122955679        1.2090604471       -0.5780887369
 C         -5.2375227710        2.4995190976       -0.7658633351
 C         -6.0610053727        3.4026534097       -1.4099140157
 C         -7.3317248706        3.0417861319       -1.8531115505
 C         -7.8189994980        1.7667049799       -1.6482185305
 C         -7.0101257924        0.8407236245       -1.0026377285
 C         -7.1926941912       -0.5291888420       -0.6138374592
 C         -8.2358615658       -1.4340475615       -0.7607744700
 C         -8.0737743189       -2.7155148482       -0.2740397296
 C         -6.8845464043       -3.1036658557        0.3395713241
 C         -5.8326367119       -2.2221362925        0.4972292404
 C         -5.9981236988       -0.9255922130        0.0308842600
 C         -2.7290573731        0.5495614210       -0.1428010259
 C         -1.4600204119        0.5278470605        0.3983881365
 C          1.4600173425       -0.5278056455        0.3983851816
 C          2.7290492049       -0.5495389278       -0.1428155093
 H          7.9434555395       -3.7763965160       -2.3555043949
 H          5.7129744874       -4.4125915944       -1.5706257926
 H          4.2612897108       -2.7937638396       -0.4106559369
 H          8.8094934728       -1.4910556705       -1.9776760531
 H          9.1515980803        1.1373394747       -1.2498494721
 H          8.8738026797        3.4337841289       -0.3756249946
 H          6.7816399849        4.1177526122        0.6970722947
 H          4.9086403677        2.5368009284        0.9586539426
 H          4.4732552921        0.6398781470        2.4941569354
 H          2.2107130658        0.7235377971        3.4475500249
 H          0.0000143154        0.0000556620        3.2911664504
 H         -2.2106812294       -0.7234277618        3.4475894180
 H         -4.4732325194       -0.6398003337        2.4942167306
 H         -4.2613023450        2.7937569703       -0.4107283505
 H         -5.7129914124        4.4125268130       -1.5707711143
 H         -7.9434722222        3.7762904485       -2.3556201571
 H         -8.8095029285        1.4909622855       -1.9776878768
 H         -9.1515918445       -1.1374019889       -1.2497639965
 H         -8.8737953236       -3.4338069529       -0.3754321238
 H         -6.7816358864       -4.1177201343        0.6973059792
 H         -4.9086392554       -2.5367558282        0.9588165808
 H         -2.8768129103        0.9075829000       -1.1505367770
 H         -0.6309406670        0.9120497310       -0.1742109572
 H          0.6309307387       -0.9120196730       -0.1741963613
 H          2.8767949571       -0.9075904015       -1.1505419026
