  56
 
 N         -4.0557342356        7.3136156350       -1.0675726857
 C         -3.5592032393        6.2856358951       -0.9128954323
 C         -2.9445928790        5.0383090058       -0.7250923261
 C         -3.4150366006        3.9046835246       -1.4039806731
 C         -2.8153508347        2.6839092706       -1.2076872985
 C         -1.7264585135        2.5442410605       -0.3356795184
 C         -1.0715555235        1.2573326168       -0.1344790917
 C          0.3047091493        1.2066780209       -0.0920506234
 C          0.9809136808       -0.0179188144       -0.0038314670
 N          2.3902102771       -0.0454518953       -0.0020245728
 C          3.0989760049        0.6008892792        0.9910588702
 C          2.4724899318        1.2514741542        2.0616413426
 C          3.2205509677        1.8959019404        3.0220541167
 C          4.6135407281        1.9015244462        2.9542875600
 C          5.2569679897        1.2310215917        1.9336505947
 C          4.5145425552        0.5734347295        0.9594566226
 O          5.1922699671       -0.1051165218        0.0045048954
 C          4.4907650412       -0.7541294208       -0.9538082128
 C          5.2090073440       -1.4429663947       -1.9245047059
 C          4.5422130616       -2.0860451939       -2.9478045876
 C          3.1510576080       -2.0208309188       -3.0221506131
 C          2.4266521425       -1.3448270331       -2.0653111575
 C          3.0754686240       -0.7209992715       -0.9920571063
 C          0.2578735864       -1.2159610369        0.0843255438
 C         -1.1190201391       -1.2125761734        0.1264077135
 C         -1.8236903298       -2.4728961818        0.3304229058
 C         -1.3983858748       -3.6358310726       -0.3305715202
 C         -2.0418110993       -4.8351233699       -0.1451089130
 C         -3.1370259006       -4.9165127863        0.7273724577
 C         -3.7996420062       -6.1385591455        0.9193041513
 N         -4.3362424836       -7.1456108015        1.0773470670
 C         -3.5579674105       -3.7654116136        1.4091990475
 C         -2.9119007737       -2.5691278233        1.2088383443
 C         -1.8206510113        0.0360523522       -0.0047089726
 C         -3.2058071344        0.0606871802       -0.0059625425
 N         -4.3667204544        0.0791207408       -0.0071748885
 C         -1.2516227244        3.6897189850        0.3225523402
 C         -1.8480956682        4.9134504195        0.1407601115
 H         -4.2499730992        4.0007060035       -2.0831097998
 H         -3.1770014343        1.8251144442       -1.7525400784
 H          0.8765091786        2.1142219040       -0.2150881995
 H          1.3973874034        1.2334765657        2.1336038399
 H          2.7199310468        2.3937093571        3.8372593700
 H          5.1899732603        2.4130911575        3.7079453659
 H          6.3323002786        1.1925645058        1.8692839269
 H          6.2846833884       -1.4504462271       -1.8551005434
 H          5.0997568274       -2.6221674282       -3.6985885936
 H          2.6335177136       -2.4973807006       -3.8394872908
 H          1.3536318469       -1.2809192713       -2.1422249163
 H          0.7936924075       -2.1450710655        0.2082355501
 H         -0.5717724633       -3.5825107326       -1.0236090112
 H         -1.7191113121       -5.7211805911       -0.6728658742
 H         -4.3917357285       -3.8282734001        2.0935907203
 H         -3.2361911432       -1.6966102445        1.7554530688
 H         -0.4241336898        3.6038314355        1.0112222123
 H         -1.4875018105        5.7860497051        0.6664194964
