93

C     11.682954   -0.160476    0.494858
C     10.491696   -0.014834   -0.487734
C     11.014771   -0.006655   -1.947666
C      9.806407    1.331743   -0.216284
C     10.547499    2.534263   -0.336387
C      9.972119    3.780567   -0.102281
C      8.638504    3.856592    0.256816
C      7.890158    2.685285    0.379272
C      8.449610    1.405198    0.148986
N      7.653423    0.213613    0.283123
C      6.268842    0.325256    0.641033
C      5.287150    0.423096   -0.357796
C      3.937615    0.531108   -0.013922
C      3.561378    0.529660    1.334969
C      2.141419    0.653699    1.743675
O      1.856736    1.335557    2.724204
C      1.055946   -0.028536    1.007463
C      1.228205   -1.245087    0.346414
C      0.140204   -1.824945   -0.307572
C     -1.093255   -1.178204   -0.266380
C     -2.249364   -1.778070   -0.991673
O     -2.043287   -2.671904   -1.813608
C     -3.648640   -1.325512   -0.769252
C     -4.539811   -1.391057   -1.850362
C     -5.872121   -1.002768   -1.691733
C     -6.332842   -0.556363   -0.445128
N     -7.700448   -0.156739   -0.278789
C     -8.684865   -1.137106    0.096920
C     -8.323883   -2.490680    0.302181
C     -9.256780   -3.461934    0.667533
C    -10.582060   -3.105251    0.839274
C    -10.964718   -1.780536    0.643821
C    -10.033839   -0.778064    0.271699
C    -10.510889    0.666836    0.068611
C    -11.135175    1.163255    1.398626
C    -11.587151    0.669840   -1.048213
C     -9.398420    1.645245   -0.333513
C     -9.708265    3.010996   -0.553509
C     -8.734689    3.937982   -0.917806
C     -7.424521    3.522368   -1.071452
C     -7.097794    2.182410   -0.860021
C     -8.066817    1.218932   -0.489418
C     -5.445127   -0.510070    0.640078
C     -4.111640   -0.898520    0.481077
N     -1.285950   -0.000447    0.377407
C     -0.212491    0.539124    1.008816
C      4.537306    0.455984    2.336198
C      5.885384    0.346463    1.990462
C      8.224359   -1.088393    0.057798
C      7.444743   -2.261254    0.204860
C      7.970767   -3.535844   -0.009398
C      9.296776   -3.673700   -0.378044
C     10.087162   -2.536844   -0.527685
C      9.573716   -1.232942   -0.313210
H     12.247854   -1.085091    0.332939
H     11.334990   -0.168046    1.535681
H     12.406600    0.656371    0.398486
H     11.711066    0.817526   -2.136838
H     10.187235    0.094607   -2.661324
H     11.554973   -0.924938   -2.203036
H     11.598070    2.511078   -0.618381
H     10.566219    4.684867   -0.201061
H      8.173863    4.820709    0.443745
H      6.847029    2.796897    0.663842
H      5.585090    0.424017   -1.404159
H      3.201203    0.634594   -0.806506
H      2.184842   -1.760264    0.340764
H      0.253065   -2.767530   -0.836466
H     -4.198777   -1.744802   -2.821378
H     -6.556271   -1.049835   -2.535490
H     -7.295015   -2.818874    0.179069
H     -8.940651   -4.490829    0.814972
H    -11.318676   -3.851486    1.123837
H    -12.014662   -1.534593    0.787093
H    -10.389286    1.172524    2.203321
H    -11.966440    0.532287    1.731567
H    -11.539376    2.178177    1.316644
H    -12.005513    1.667110   -1.222727
H    -11.167005    0.320611   -1.999901
H    -12.438076    0.022462   -0.810058
H    -10.728306    3.371954   -0.440708
H     -9.002771    4.978381   -1.079181
H     -6.652177    4.232140   -1.354502
H     -6.055633    1.903587   -0.992460
H     -5.799653   -0.172636    1.611259
H     -3.455257   -0.868283    1.346308
H     -0.409397    1.474941    1.528595
H      4.251103    0.484398    3.385795
H      6.643152    0.283986    2.768165
H      6.399537   -2.203708    0.495772
H      7.341399   -4.412809    0.114074
H      9.719737   -4.660139   -0.547760
H     11.125907   -2.681693   -0.817324
