  82
 
 C        -10.0258238133       -0.4871582323        1.1779949291
 C         -9.1442736274       -0.0062901381        0.0089156468
 C        -10.0258008386        0.4738970189       -1.1604617397
 C         -8.2956181975        1.1560844632        0.4810775173
 C         -8.9153910730        2.3113349729        0.9389995560
 C         -8.1957753913        3.4218035192        1.3399725544
 C         -6.8128249211        3.3982881132        1.2599858461
 C         -6.1714321429        2.2653805808        0.8107201570
 C         -6.8942171563        1.1215899067        0.4435992845
 N         -6.2163834838       -0.0051743753        0.0094409816
 C         -4.8015820300       -0.0046325101        0.0097628283
 C         -4.0903798049        0.0253398636        1.2242833638
 C         -2.7264748991        0.0082508810        1.2326919772
 C         -1.9852493673       -0.0033305712        0.0104201223
 C         -0.6180416754       -0.0025989128        0.0107840403
 C          0.6178684375       -0.0019226729        0.0112687240
 C          1.9850734415       -0.0009629528        0.0117887594
 C          2.7264176843        0.0674026370       -1.2085086653
 C          4.0903188187        0.0858823364       -1.1990949298
 C          4.8013310071        0.0012884927        0.0129122783
 N          6.2162465938        0.0025088304        0.0134814311
 C          6.8943991198       -1.1435806212        0.3931987129
 C          6.1718029807       -2.3036873512        0.7050989882
 C          6.8134155448       -3.4571431851        1.0983557881
 C          8.1964291850       -3.4845484039        1.1760122565
 C          8.9157858358       -2.3557617494        0.8293388448
 C          8.2957566294       -1.1794522899        0.4289068069
 C          9.1441076738        0.0050937492        0.0147269398
 C         10.0267127799       -0.4168442517       -1.1760875315
 C         10.0244881650        0.4286969989        1.2066046683
 C          8.2940167258        1.1880804531       -0.4003484892
 C          8.9123086042        2.3654543558       -0.8003377878
 C          8.1912584867        3.4929833685       -1.1475915259
 C          6.8082393838        3.4631987794       -1.0709190612
 C          6.1683257466        2.3086393038       -0.6781309024
 C          6.8926950186        1.1497763607       -0.3657139446
 C          4.0894900859       -0.0844902158        1.2243468987
 C          2.7255538920       -0.0682400853        1.2326703922
 C         -2.7258908931       -0.0156449966       -1.2121951113
 C         -4.0897860234       -0.0339933573       -1.2044222134
 C         -6.8931969993       -1.1324372826       -0.4250087389
 C         -6.1694068455       -2.2756509724       -0.7919454651
 C         -6.8097781046       -3.4090316701       -1.2414765059
 C         -8.1926855469       -3.4336176279       -1.3219036320
 C         -8.9132896687       -2.3237170104       -0.9211327723
 C         -8.2945590742       -1.1680035987       -0.4629710721
 H         -9.3982146907       -0.8285280815        1.9995054052
 H        -10.6642465080       -1.3096614261        0.8689399819
 H        -10.6585031438        0.3178869175        1.5404850899
 H        -10.6648822585        1.2959799914       -0.8516502674
 H        -10.6578118152       -0.3316050476       -1.5231002468
 H         -9.3981767169        0.8156571094       -1.9817985091
 H         -9.9928421519        2.3530210423        0.9822497512
 H         -8.7098062179        4.3023381221        1.6946168424
 H         -6.2324138120        4.2647684018        1.5402176591
 H         -5.0959345268        2.2606895650        0.7301971820
 H         -4.6453203483        0.0355976412        2.1524689241
 H         -2.1811864594        0.0018696424        2.1655140606
 H          2.1811933559        0.1025526798       -2.1407320035
 H          4.6453340950        0.1396181618       -2.1257677157
 H          5.0962500331       -2.2948748767        0.6253479467
 H          6.2331143474       -4.3361262982        1.3367432066
 H          8.7107129567       -4.3814004282        1.4866484707
 H          9.9932669631       -2.3994762182        0.8700276301
 H         10.6566194079        0.4065683453       -1.5001299165
 H          9.3997908519       -0.7208905632       -2.0126395649
 H         10.6680073816       -1.2508935864       -0.9065108552
 H          9.3959623263        0.7315005369        2.0424027193
 H         10.6555867359       -0.3935147801        1.5313761318
 H         10.6644677919        1.2640105984        0.9378138002
 H          9.9897440156        2.4110363839       -0.8401655166
 H          8.7042180812        4.3907193899       -1.4578725477
 H          6.2266009237        4.3411848935       -1.3097203601
 H          5.0927302303        2.2979851525       -0.5991396429
 H          4.6438496787       -0.1373283018        2.1514643117
 H          2.1796577049       -0.1042855998        2.1644645897
 H         -2.1801834802       -0.0087625085       -2.1447676204
 H         -4.6442844600       -0.0447564255       -2.1328666565
 H         -5.0939388105       -2.2701318955       -0.7110672352
 H         -6.2286091875       -4.2750499975       -1.5215649958
 H         -8.7059177938       -4.3145403096       -1.6767446564
 H         -9.9906936138       -2.3662236102       -0.9647393702
