88

O      8.668493   -2.895333    1.383951
C      8.005819   -2.103813    0.718500
C      8.687845   -0.972091    0.042111
C      8.280340   -0.511655   -1.215951
C      8.957053    0.549855   -1.820527
C     10.045253    1.142163   -1.179152
C     10.466986    0.670487    0.063704
C      9.793910   -0.389733    0.672091
C      6.539289   -2.307273    0.617298
C      6.041512   -3.609578    0.646461
C      4.664321   -3.822938    0.570684
C      3.776480   -2.758395    0.478408
N      2.457674   -2.988257    0.402281
C      1.604735   -1.935095    0.320912
C      0.218686   -2.155247    0.242597
C     -0.289269   -3.475996    0.249248
C     -1.653118   -3.748622    0.172789
C     -2.558656   -2.699190    0.086381
N     -3.959845   -2.952431    0.006439
C     -4.597475   -3.213384   -1.250543
C     -3.899971   -3.237577   -2.471051
C     -4.562905   -3.494908   -3.675870
C     -5.934808   -3.730801   -3.683343
C     -6.645286   -3.707988   -2.486034
C     -5.981505   -3.450513   -1.282230
O     -6.771435   -3.443667   -0.155485
C     -6.161245   -3.191362    1.051834
C     -7.003088   -3.194461    2.168656
C     -6.480471   -2.954323    3.436753
C     -5.117650   -2.713484    3.586872
C     -4.276503   -2.710632    2.468975
C     -4.784059   -2.946626    1.179232
C     -2.073831   -1.382345    0.078932
C     -0.689938   -1.070351    0.156261
C     -0.180291    0.265189    0.150616
C     -1.005053    1.419253    0.070093
C     -0.489642    2.724510    0.064273
N     -1.366394    3.846595   -0.018268
C     -1.875730    4.301059   -1.279020
C     -1.540045    3.695153   -2.502591
C     -2.061225    4.171159   -3.710535
C     -2.924375    5.263217   -3.718393
C     -3.264871    5.881982   -2.518420
C     -2.743330    5.405131   -1.311474
O     -3.133225    6.088414   -0.182539
C     -2.645544    5.653652    1.028493
C     -3.073800    6.374565    2.147886
C     -2.643273    6.007982    3.420292
C     -1.787675    4.920522    3.572085
C     -1.359760    4.200339    2.451551
C     -1.777765    4.556744    1.157280
C      0.885470    2.904194    0.140902
C      1.721459    1.792973    0.222350
C      1.220451    0.469571    0.229445
C      2.107774   -0.617303    0.313922
N      3.446235   -0.398964    0.387829
C      4.276998   -1.447893    0.470050
C      5.647623   -1.233443    0.547028
H      7.453509   -0.976454   -1.746134
H      8.642137    0.910406   -2.797006
H     10.573098    1.966078   -1.653810
H     11.323454    1.123750    0.556816
H     10.132904   -0.761664    1.637080
H      6.718310   -4.458247    0.729584
H      4.274793   -4.838164    0.588747
H      0.394602   -4.322718    0.316871
H     -2.005038   -4.776935    0.182537
H     -2.829403   -3.055547   -2.506256
H     -4.003442   -3.509619   -4.607992
H     -6.450050   -3.930433   -4.619167
H     -7.716661   -3.888959   -2.485768
H     -8.065620   -3.385344    2.045543
H     -7.133934   -2.956727    4.305133
H     -4.703692   -2.527908    4.574982
H     -3.218067   -2.522962    2.627241
H     -2.822279   -0.597008    0.008262
H     -2.087134    1.331389    0.011937
H     -0.865294    2.844369   -2.538291
H     -1.789334    3.686168   -4.644857
H     -3.329364    5.633188   -4.656585
H     -3.935530    6.736865   -2.518467
H     -3.744875    7.220004    2.023406
H     -2.976377    6.567061    4.290674
H     -1.451125    4.627467    4.563560
H     -0.696440    3.354846    2.611659
H      1.308339    3.905472    0.136291
H      2.795769    1.969690    0.282151
H      6.005392   -0.207101    0.567821
