  78
 
 C          6.3446122643        1.6644679137        2.8767287912
 C          5.9266471201        0.3524702601        3.0263982627
 C          4.8922260652       -0.1358212589        2.2494178737
 C          4.2545353755        0.6711386618        1.3107785239
 Si         2.8268026080       -0.0143569861        0.2747662850
 C          2.3895079378        1.1360147699       -1.1678401072
 C          1.6577566026        2.2990284649       -0.9427297676
 C          1.2827861576        3.1217988143       -1.9885353131
 C          1.6357220454        2.7938203307       -3.2871890170
 C          2.3635276945        1.6413799753       -3.5296837207
 C          2.7342503206        0.8224708040       -2.4780219611
 C          3.2912411223       -1.7129156737       -0.4263846631
 C          2.2993173271       -2.6139922221       -0.8030851910
 C          2.6222209456       -3.8422539111       -1.3503765747
 C          3.9498296394       -4.1929877691       -1.5312410022
 C          4.9493276415       -3.3081955197       -1.1630755774
 C          4.6197567635       -2.0803258295       -0.6176787005
 C          1.2499098561       -0.1608324530        1.3154773050
 C          1.2405449194       -0.3009546864        2.6986112746
 C          0.0437431528       -0.4054900127        3.3874799836
 C         -1.1597363846       -0.3573838533        2.7059411053
 C         -1.1854474445       -0.2054977242        1.3224347642
 Si        -2.8002848067       -0.0642307498        0.3423450196
 C         -2.3719161222       -0.3539127766       -1.4808448517
 C         -2.6118079402       -1.5710043675       -2.1090821719
 C         -2.2091862484       -1.7911934050       -3.4144924943
 C         -1.5500656337       -0.7945011186       -4.1139960390
 C         -1.3087788994        0.4265772595       -3.5065312713
 C         -1.7205227010        0.6423407688       -2.2047019244
 C         -3.5208274774        1.6789300144        0.5208885038
 C         -4.4457753519        2.1537568392       -0.4052495206
 C         -4.9925835396        3.4181928814       -0.2849322618
 C         -4.6194458714        4.2359530034        0.7688457970
 C         -3.6961023766        3.7822274547        1.6955259220
 C         -3.1542105571        2.5155019512        1.5699117775
 C         -4.0326035189       -1.3585670730        0.9689607648
 C         -3.5969523253       -2.6384825270        1.3019996757
 C         -4.4842028296       -3.6017653209        1.7459469701
 C         -5.8303564923       -3.2993218688        1.8671028731
 C         -6.2801213050       -2.0300431346        1.5446048844
 C         -5.3873235592       -1.0714050723        1.1000491070
 C          0.0280647961       -0.1199896212        0.6547241596
 C          4.6887513332        1.9854231613        1.1726570545
 C          5.7235163090        2.4802095957        1.9461911445
 H          7.1532721527        2.0484368948        3.4817845813
 H          6.4100887265       -0.2895924074        3.7491627560
 H          4.5756279887       -1.1633198276        2.3643773978
 H          1.3705490069        2.5549775562        0.0679026081
 H          0.7114022946        4.0185293340       -1.7932509968
 H          1.3427406920        3.4345659847       -4.1069047295
 H          2.6392794736        1.3788314718       -4.5412900242
 H          3.2959711506       -0.0799541113       -2.6745838725
 H          1.2612305896       -2.3462681160       -0.6643265063
 H          1.8379277008       -4.5281322551       -1.6376214785
 H          4.2047616724       -5.1523726923       -1.9580530673
 H          5.9870666489       -3.5760386359       -1.3031306719
 H          5.4043417960       -1.3928860885       -0.3337687196
 H          2.1762925454       -0.3237034255        3.2390915384
 H          0.0495214615       -0.5197185512        4.4627406949
 H         -2.0911874993       -0.4391752515        3.2494180245
 H         -3.1220002804       -2.3542564433       -1.5658484973
 H         -2.4050015912       -2.7436066324       -3.8866235040
 H         -1.2269001358       -0.9678624616       -5.1303250024
 H         -0.7931473822        1.2088544015       -4.0446254825
 H         -1.5315471604        1.5991813536       -1.7377445220
 H         -4.7340006307        1.5219493873       -1.2341499145
 H         -5.7099795832        3.7688281878       -1.0134266558
 H         -5.0448753141        5.2245233604        0.8653754557
 H         -3.3983142009        4.4182308125        2.5171663619
 H         -2.4303070866        2.1687111596        2.2937715275
 H         -2.5458036047       -2.8769692544        1.2153658412
 H         -4.1273843401       -4.5900217045        1.9995266676
 H         -6.5258845889       -4.0497682028        2.2143113034
 H         -7.3290491979       -1.7880872305        1.6409954006
 H         -5.7433539900       -0.0809883442        0.8542056464
 H          0.0240505639       -0.0084343287       -0.4201337276
 H          4.2101812012        2.6254670089        0.4449974960
 H          6.0480793086        3.5037930625        1.8234973793
