  79
 
 C         -6.7981072368       -0.0301857311        3.4890802375
 C         -5.9105592656       -0.3160949938        2.3140838359
 C         -5.6328541544       -1.6439732692        1.9718676151
 C         -4.8272347575       -1.9760358722        0.9013445081
 C         -4.2938689923       -0.9414768418        0.1472627053
 C         -4.5451302790        0.4055268212        0.4863538940
 C         -5.3568004785        0.7111282108        1.5712194185
 C         -3.8153064749        1.2065749821       -0.4566346711
 C         -3.6629778664        2.5771113442       -0.6286903990
 C         -2.8589128219        3.0470613678       -1.6515552268
 C         -2.6327176144        4.5172526872       -1.8414284021
 C         -2.2382188797        2.1385398129       -2.5159685055
 C         -2.3813372088        0.7731252127       -2.3756356364
 C         -3.1544340281        0.3072400866       -1.3217660409
 N         -3.4452525453       -0.9894732323       -0.9428745739
 C         -2.9772785570       -2.1572393497       -1.5541109259
 C         -3.8968572588       -3.1058254792       -1.9944654532
 C         -3.4748924291       -4.2559683078       -2.6322321018
 C         -2.1225123073       -4.4709479918       -2.8579473677
 C         -1.1977507604       -3.5457363490       -2.4208498671
 C         -1.6073039191       -2.3923621388       -1.7494752991
 C         -0.5789687752       -1.4955123220       -1.2690568839
 N          0.6587120351       -1.4747503448       -1.6747762950
 N          1.2870057016       -0.5152524261       -0.9903044423
 C          0.4171355376        0.0193629867       -0.1830862455
 C          0.5944717840        1.1517246369        0.6971255357
 C         -0.5276388151        1.8830881230        1.0852214354
 C         -0.3897553509        3.0433770338        1.8190903245
 C          0.8745841761        3.4844447064        2.1812562752
 C          1.9925850109        2.7494390199        1.8360380664
 C          1.8729647959        1.5720192818        1.1012925976
 N          3.0096125654        0.8227974730        0.8091642060
 C          4.1597542394        1.3005029693        0.2086785526
 C          4.4511238504        2.5693073661       -0.2682691464
 C          5.6874952990        2.7732586995       -0.8484538915
 C          6.6310006714        1.7486612086       -0.9725844857
 C          7.9572474849        2.0427619766       -1.6096767513
 C          6.3239622440        0.4786604456       -0.5166353285
 C          5.0882842394        0.2465965945        0.0721180710
 C          4.4629511666       -0.9229481041        0.6245591383
 C          4.8812208253       -2.2359330976        0.7933119467
 C          4.0346861387       -3.1449741753        1.4021159376
 C          4.4399302747       -4.5779401684        1.5853329072
 C          2.7823621779       -2.7225665996        1.8590501931
 C          2.3445989809       -1.4226371691        1.7065987645
 C          3.1827317811       -0.5249455273        1.0628905178
 O         -0.7951429092       -0.5677685311       -0.3105100462
 H         -7.7806851391       -0.4771683882        3.3413792086
 H         -6.9226752729        1.0402556069        3.6311835958
 H         -6.3739665713       -0.4540419098        4.3988496191
 H         -6.0630129602       -2.4337205853        2.5710610793
 H         -4.6147680340       -3.0085577224        0.6668522908
 H         -5.5493139137        1.7420026891        1.8302856019
 H         -4.1641856964        3.2648039531        0.0368004615
 H         -1.6073174430        4.7754753287       -1.5750240094
 H         -2.7879982783        4.7996499611       -2.8813268610
 H         -3.3065438538        5.0985610458       -1.2169997468
 H         -1.6258476052        2.5218070781       -3.3193104902
 H         -1.8976430945        0.0931076702       -3.0624657307
 H         -4.9495888399       -2.9163802150       -1.8455585628
 H         -4.2030324463       -4.9788893548       -2.9680988756
 H         -1.7937036729       -5.3618036832       -3.3701810583
 H         -0.1401748523       -3.6914669572       -2.5730051215
 H         -1.5055441986        1.5436556587        0.7808367750
 H         -1.2657233882        3.6062145284        2.1018469993
 H          0.9880245090        4.3951932372        2.7502003031
 H          2.9749529043        3.0686638930        2.1503796472
 H          3.7331606218        3.3731460727       -0.2013714935
 H          5.9370588629        3.7555120636       -1.2241068711
 H          8.5851567758        1.1556898255       -1.6267064390
 H          8.4786581259        2.8267266925       -1.0611801761
 H          7.8190969171        2.3891352533       -2.6334480698
 H          7.0346845865       -0.3279845961       -0.6206728869
 H          5.8596022423       -2.5410752964        0.4522062264
 H          4.3477224286       -4.8724854489        2.6300640359
 H          5.4680248837       -4.7341924285        1.2689735428
 H          3.7951399294       -5.2307816182        0.9972302132
 H          2.1395611186       -3.4407013015        2.3487603570
 H          1.3782760601       -1.1193660774        2.0844797387
