  167
 
 C        -15.6549573686        7.6858974208       -4.5540970999
 C        -15.1203663006        6.9133857196       -3.6154277145
 C        -15.2159918080        5.4611432147       -3.5192699140
 C        -14.7141718222        4.8238110154       -2.3832117997
 C        -14.7863234845        3.4521633444       -2.2410660960
 C        -15.3485410992        2.6708504722       -3.2413907238
 C        -15.4437389186        1.1716035750       -3.0928708918
 O        -14.4999678609        0.6123975833       -2.2041148474
 C        -13.1815639604        0.5977513838       -2.5622207309
 C        -12.6597093029        1.1100873869       -3.7395611796
 C        -11.2947580244        1.0258498752       -4.0103065666
 C        -10.4051383732        0.4404757590       -3.1349223955
 C        -10.9151967065       -0.0676967933       -1.9449417692
 C        -12.2960753540        0.0058086057       -1.6527176622
 C        -12.4767349408       -0.6048121077       -0.3683689388
 C        -13.5832019393       -0.8334389886        0.4404837228
 C        -13.3959771800       -1.4692986186        1.6518698739
 C        -12.1269624195       -1.8766947235        2.0601528120
 C        -11.0127107912       -1.6618597761        1.2719209959
 C        -11.1904575821       -1.0188056138        0.0539850227
 N        -10.2631471875       -0.6737307076       -0.9000513310
 C         -8.8636709747       -1.0029024762       -0.8353200017
 C         -8.5899169783       -2.4362136688       -1.3098673286
 C         -7.2017063653       -2.9077421346       -0.8857529416
 C         -6.9386769235       -4.3607133189       -1.2823916797
 C         -5.7341920980       -4.9652195451       -0.5568270225
 C         -5.9785418680       -5.1621922428        0.9449065048
 O         -5.8503602633       -3.9688877233        1.6999538745
 C         -4.6186604085       -3.4796101898        1.9999907883
 C         -3.4095734814       -4.1353284499        1.8098678648
 C         -2.2119966980       -3.5626365657        2.2262381084
 C         -2.1580746326       -2.3131231741        2.8088965397
 C         -3.3525088833       -1.6213755710        2.9468054175
 C         -4.5817434531       -2.2032184342        2.5797049779
 C         -5.6087281208       -1.2565605763        2.9147065053
 C         -6.9925896969       -1.2630441707        2.7940797663
 C         -7.6986816824       -0.1434455666        3.1880621145
 C         -7.0401476479        0.9771811474        3.6878753960
 C         -5.6651531316        1.0000474496        3.8337981021
 C         -4.9553684819       -0.1329077511        3.4652383536
 N         -3.5878978454       -0.3658598694        3.4839984027
 C         -2.6379785055        0.4999058688        4.0235660835
 C         -2.8480334902        1.0555731963        5.2828806569
 C         -1.9291108521        1.9354694071        5.8251671839
 C         -0.7664192972        2.2490503109        5.1430672786
 C         -0.5191320237        1.6940072990        3.8931333700
 N          0.6710655571        1.9888347241        3.2235549898
 C          1.1654270615        3.2597946931        2.9849965394
 C          0.5658427505        4.4915397135        3.1969744931
 C          1.2762500826        5.6222705919        2.8374203379
 C          2.5463798210        5.5320340702        2.2727123349
 C          3.1386222027        4.3057613551        2.0405600751
 C          2.4448544481        3.1562074479        2.3964334500
 C          2.7368657843        1.7531592178        2.3008898720
 C          3.8668396728        1.0425425453        1.8712997712
 O          4.9163739507        1.7855143638        1.4312634967
 C          6.1542635101        1.1568646782        1.1435117834
 C          6.2095443207        0.5691304614       -0.2702635293
 C          7.4052207754       -0.3633301758       -0.4740683577
 C          8.7718461800        0.3167791179       -0.3545006782
 C          9.1208652242        1.2208006084       -1.5388666347
 C          9.6159936212        0.4388190447       -2.7634731072
 N         10.9002629000       -0.1705930509       -2.5310501606
 C         12.0976785961        0.5028747319       -2.5483726279
 C         12.3588213815        1.8333021034       -2.8514069859
 C         13.6732722070        2.2572815376       -2.8313820670
 C         14.7140220628        1.3813010841       -2.5284774225
 C         14.4646265232        0.0576053989       -2.2263716937
 C         13.1476836409       -0.3888891921       -2.2195117576
 C         12.5283678298       -1.6614089992       -1.9746225727
 C         13.0077441370       -2.9231707794       -1.6100397849
 O         14.3501343348       -3.1574589776       -1.3742929876
 C         14.8427793722       -2.5993114561       -0.1621266510
 C         16.3227266360       -2.3456383942       -0.2610565178
 C         16.9075887391       -1.3074791002        0.4559400746
 C         18.2663016266       -1.0769142991        0.3809803148
 C         19.0862944782       -1.8735960600       -0.4205106815
 C         20.5254443461       -1.6701290129       -0.5412161824
 C         21.2531541907       -0.7363077121        0.0608270135
 C         18.4876016841       -2.9110494249       -1.1383676191
 C         17.1292250780       -3.1466214678       -1.0588086455
 C         12.1108999185       -3.9745226078       -1.5146390444
 C         10.7543390192       -3.7837845489       -1.7614569810
 C         10.2488010394       -2.5426258542       -2.0888999520
 C         11.1394698608       -1.4800196630       -2.1946908734
 C          3.8289084684       -0.3428433921        1.9621014043
 C          2.7172997188       -0.9983277264        2.4833034478
 C          1.6035147081       -0.3154213862        2.9256232950
 C          1.6183595688        1.0670913818        2.8131011312
 C         -1.4723673225        0.8379960453        3.3103700931
 C         -1.3002825622        0.4262329158        1.9723112756
 N         -1.1822443921        0.1612490119        0.8614772588
 C        -15.8466764556        3.2945746873       -4.3799446403
 C        -15.7851466485        4.6663904926       -4.5162755749
 H        -15.5300944148        8.7553685546       -4.5350389969
 H        -16.2376093841        7.2948740417       -5.3706226836
 H        -14.5564153801        7.3776864418       -2.8148520025
 H        -14.2668729311        5.4151852757       -1.5964585886
 H        -14.3969277342        2.9775795505       -1.3515775934
 H        -15.3809581804        0.6857080034       -4.0765344194
 H        -16.4131029931        0.9127304678       -2.6484446544
 H        -13.2994005977        1.5924875334       -4.4612532458
 H        -10.9309804768        1.4361659084       -4.9411817754
 H         -9.3544951348        0.3845561562       -3.3721662097
 H        -14.5632548472       -0.5176924014        0.1171208904
 H        -14.2432397264       -1.6574313693        2.2957769308
 H        -12.0133092297       -2.3738181820        3.0131295857
 H        -10.0376775889       -1.9875894469        1.5997939022
 H         -8.5336444864       -0.8938196322        0.2021481428
 H         -8.3039739736       -0.2866804074       -1.4404932590
 H         -9.3429158783       -3.0938468941       -0.8684001208
 H         -8.6977109430       -2.4922599104       -2.3950667523
 H         -7.1203970048       -2.8158503705        0.1965806174
 H         -6.4389551927       -2.2620188498       -1.3273761781
 H         -7.8219577067       -4.9622227027       -1.0539041767
 H         -6.7712558007       -4.4199963538       -2.3601461953
 H         -5.5123893724       -5.9415552108       -0.9917118704
 H         -4.8603471056       -4.3250819467       -0.6953863650
 H         -5.3152992437       -5.9362928888        1.3463276731
 H         -7.0117803572       -5.4779986418        1.1157408391
 H         -3.3757356329       -5.1071851703        1.3448919445
 H         -1.2965972365       -4.1175830181        2.0853475250
 H         -1.2173192008       -1.8997372918        3.1334845423
 H         -7.4913374523       -2.1361276033        2.4042783845
 H         -8.7753252039       -0.1263605902        3.1025932701
 H         -7.6153144804        1.8467967409        3.9693709162
 H         -5.1664863097        1.8789368411        4.2134952663
 H         -3.7315822804        0.7776154489        5.8356067556
 H         -2.1065533427        2.3587916205        6.8016172847
 H         -0.0314904847        2.9083451121        5.5779139462
 H         -0.4241656365        4.5687974997        3.6211966771
 H          0.8344403401        6.5951705213        2.9952225685
 H          3.0697974444        6.4383592606        2.0058831297
 H          4.1155902005        4.2270097249        1.5906688709
 H          6.8881733731        1.9600253988        1.2508248935
 H          6.3714593932        0.3855971194        1.8921381679
 H          5.2904630445        0.0066020540       -0.4494430397
 H          6.2300057740        1.3877006458       -0.9907664587
 H          7.3121372477       -0.8241939206       -1.4587980210
 H          7.3526856448       -1.1651720031        0.2665836685
 H          9.5401752279       -0.4542881319       -0.2645196080
 H          8.7987346789        0.9033809890        0.5640635775
 H          8.2513278346        1.8098871106       -1.8301717132
 H          9.9082503159        1.9138194052       -1.2367621549
 H          8.9049130587       -0.3441492643       -3.0293477633
 H          9.7066898984        1.1172918288       -3.6176591785
 H         11.5655019782        2.5204514265       -3.1030376148
 H         13.9010573569        3.2878339185       -3.0632866995
 H         15.7318487586        1.7433892910       -2.5354548594
 H         15.2781952006       -0.6190167918       -2.0137568265
 H         14.6469015083       -3.3106029680        0.6598428223
 H         14.3161084787       -1.6658642864        0.0718846744
 H         16.2886933614       -0.6730860700        1.0750444982
 H         18.6920004568       -0.2635612859        0.9477056308
 H         21.0212386406       -2.3731342485       -1.2004870335
 H         20.8301319402       -0.0047645316        0.7278309271
 H         22.3165818794       -0.6705342283       -0.0957596308
 H         19.0994784172       -3.5417999913       -1.7682522599
 H         16.6765805993       -3.9466770726       -1.6251211002
 H         12.4841600180       -4.9517784893       -1.2475157524
 H         10.0841857176       -4.6267619830       -1.6803483579
 H          9.1918675363       -2.4138728248       -2.2583952098
 H          4.6656048135       -0.9401046446        1.6388248755
 H          2.7362285987       -2.0761024997        2.5479006174
 H          0.7643154267       -0.8416074075        3.3516727191
 H        -16.2846207582        2.6956224626       -5.1665619883
 H        -16.1743308687        5.1228061591       -5.4130611883
