  75
 
 C         -1.0477867934        6.1518550314        0.7309710739
 C         -0.1499873088        5.3017124326       -0.1729844599
 C          1.3122341292        5.5680307308        0.2153727942
 C         -0.3899281834        5.7316750566       -1.6278763148
 C         -0.4292792644        3.8125011541       -0.0433667133
 C          0.3095483597        2.9074106129       -0.8038869753
 C          0.0988841812        1.5464190533       -0.7185582594
 C         -0.8657078539        1.0484856560        0.1494655142
 N         -1.0730729703       -0.3410870485        0.2498378421
 C         -0.1194176712       -1.3011240233        0.4728140219
 C          1.2774030095       -0.9949386872        0.7468580540
 C          1.5823396497        0.0645069899        1.6019781494
 C          2.8864046125        0.4007686404        1.8914404401
 C          3.9487356767       -0.3151412837        1.3358699393
 C          5.3076281601        0.0126372727        1.6132893096
 C          6.3253611490       -0.6989678038        1.0755670532
 C          6.0749226762       -1.8042766240        0.2098831632
 C          7.1098442442       -2.5522200671       -0.3551125134
 C          6.8362440357       -3.6187106947       -1.1923377862
 C          5.5296883731       -3.9641181739       -1.4859096294
 C          4.4631112291       -3.2445453495       -0.9431673623
 C          3.1041239771       -3.5680481639       -1.2249042816
 C          2.0830436356       -2.8587124589       -0.6893157182
 C          2.3206896786       -1.7579319722        0.1854210027
 C          3.6638284218       -1.4072980017        0.4786000250
 C          4.7317660882       -2.1509474928       -0.0836200920
 N         -0.6523888906       -2.4987248301        0.4721251934
 C         -1.9874981418       -2.3439968076        0.2439387687
 C         -2.8572224160       -3.5069001896        0.1432036912
 C         -2.4963711821       -4.6813495089        0.8037828403
 C         -3.2964674498       -5.8048468231        0.7254866225
 C         -4.4663551017       -5.7762833865       -0.0169642772
 C         -4.8228638273       -4.6196650322       -0.6915915472
 C         -4.0245151041       -3.4933611451       -0.6187750388
 C         -2.2761626558       -0.9958785509        0.1077650464
 C         -3.5351075523       -0.3000963210       -0.1290155434
 C         -4.6488554133       -0.5907619211        0.6586502339
 C         -5.8461029421        0.0650755510        0.4443933910
 C         -5.9488950174        1.0203090118       -0.5547663684
 C         -4.8480482405        1.3132454996       -1.3425466907
 C         -3.6475907004        0.6592855464       -1.1338393521
 C         -1.6143085462        1.9323719072        0.9131826821
 C         -1.3959372262        3.2948295475        0.8111053086
 H         -2.0975176091        6.0159207659        0.4809653810
 H         -0.8944597562        5.9058487933        1.7792324119
 H         -0.8041399502        7.2035158214        0.5948092587
 H          1.4944281696        5.2448089480        1.2384628193
 H          2.0002257323        5.0371744122       -0.4367289233
 H          1.5286504129        6.6318643639        0.1457658265
 H         -1.4184822489        5.5245618136       -1.9170096908
 H         -0.2097975632        6.7991199281       -1.7352351943
 H          0.2695369905        5.2054265059       -2.3123076015
 H          1.0679405285        3.2621091509       -1.4842893738
 H          0.6807000514        0.8631464620       -1.3205413547
 H          0.7793656567        0.6221805596        2.0621571864
 H          3.0938294794        1.2228550825        2.5612183925
 H          5.5035598129        0.8488654425        2.2696165329
 H          7.3533475395       -0.4437512946        1.2916302331
 H          8.1335350294       -2.2879861932       -0.1306843118
 H          7.6499069276       -4.1865224824       -1.6206119345
 H          5.3220442197       -4.7976039776       -2.1417928813
 H          2.9042709642       -4.4012434823       -1.8840180482
 H          1.0590412802       -3.1264148266       -0.8984911745
 H         -1.5800126582       -4.6910536345        1.3747775130
 H         -3.0080834535       -6.7070650039        1.2459624584
 H         -5.0944176687       -6.6534302723       -0.0753277869
 H         -5.7267680388       -4.5960412481       -1.2837358917
 H         -4.3006398706       -2.6021238391       -1.1628714520
 H         -4.5640455062       -1.3345562423        1.4381290125
 H         -6.7016555843       -0.1681782956        1.0613792619
 H         -6.8851698592        1.5327228251       -0.7195836497
 H         -4.9240921017        2.0522965868       -2.1268852085
 H         -2.7956157231        0.8826875812       -1.7601823709
 H         -2.3639034702        1.5524874093        1.5920516148
 H         -1.9975125668        3.9471920073        1.4216777082
