  57
 
 C         -6.7237943246       -3.7429432680       -0.1519335117
 O         -5.3467984478       -4.0292675758       -0.1971061439
 C         -4.4604998393       -3.0043487294       -0.1521817108
 C         -3.1070005831       -3.3863232257       -0.2122594418
 C         -2.0904018221       -2.4604008398       -0.1647190593
 C         -2.4316057937       -1.1170430225       -0.0429350843
 C         -3.7914772294       -0.7170788879       -0.0251447391
 C         -4.8088846683       -1.6591619358       -0.0710054334
 C         -3.7912527057        0.7184180327        0.0264007225
 C         -4.8083624780        1.6608175822        0.0723548219
 C         -4.4595499326        3.0058931993        0.1535071197
 O         -5.3455285046        4.0310911414        0.1985235580
 C         -6.7226169659        3.7451934831        0.1534958090
 C         -3.1059288244        3.3874510005        0.2134554243
 C         -2.0896213116        2.4612102235        0.1658185502
 C         -2.4312551145        1.1179608462        0.0440691215
 N         -1.6246975499        0.0003327622        0.0005292437
 C         -0.2382744875        0.0001216006        0.0004644035
 C          0.4821390838       -0.9040249390        0.8068609679
 C          1.8455603647       -0.9020617940        0.8091332815
 C          2.5939649869       -0.0003167573        0.0003413059
 C          4.0130759693       -0.0005359300        0.0002858915
 C          4.7887291247        1.1884108300       -0.2454034699
 C          4.2123997952        2.4586851212       -0.3813635311
 N          3.8125740440        3.5360646520       -0.4654312014
 C          6.1796759038        1.1341407871       -0.2280199222
 C          7.0161722759        2.3537956787       -0.4502267860
 N          6.8315870788       -0.0009406890        0.0001455990
 C          6.1793541857       -1.1358289617        0.2283870715
 C          7.0155120295       -2.3557441710        0.4505540450
 C          4.7883917329       -1.1897037900        0.2459090277
 C          4.2116884408       -2.4598462157        0.3818930682
 N          3.8116413853       -3.5370758543        0.4661861806
 C          1.8457661227        0.9016599530       -0.8083921704
 C          0.4823422055        0.9040401271       -0.8059960772
 H         -7.0360337539       -3.1370196782       -1.0085031474
 H         -7.2266700259       -4.7076461372       -0.1921029164
 H         -6.9970124508       -3.2312840661        0.7764142434
 H         -2.8902571970       -4.4378920015       -0.3043296113
 H         -1.0614937833       -2.7742903912       -0.2375324060
 H         -5.8375666520       -1.3377729167       -0.0505345029
 H         -5.8371464885        1.3397498569        0.0519682403
 H         -6.9960934728        3.2336227114       -0.7748246256
 H         -7.2251874727        4.7100531394        0.1937211077
 H         -7.0349553439        3.1393650859        1.0100961932
 H         -2.8888488658        4.4389511958        0.3055003198
 H         -1.0606092014        2.7747812124        0.2385309361
 H         -0.0593715963       -1.5534039676        1.4785696176
 H          2.3682482428       -1.5583944407        1.4860984778
 H          8.0675307739        2.0827149317       -0.4120596779
 H          6.8074198001        3.1013504684        0.3143047859
 H          6.7911076702        2.8009017944       -1.4175755997
 H          6.8064378375       -3.1032446456       -0.3139341853
 H          6.7903866556       -2.8027243317        1.4179409281
 H          8.0669497497       -2.0849917674        0.4122781028
 H          2.3685972688        1.5578331552       -1.4853981378
 H         -0.0590228020        1.5535884543       -1.4776582849
