44
 xtb: 6.7.1 (edcfbbe)
C            6.89441673767149        0.38406987295631       -0.09166420165935
C            6.49798480242101        0.58456147127007       -1.40530537558191
C            5.27616982657288        0.10519791065098       -1.83861787537901
C            4.45070192823692       -0.59604012379638       -0.96867764051445
C            4.84702003252573       -0.79502817547372        0.34771519107855
C            6.06667471860860       -0.29360296842756        0.78383836720922
S            3.86918558821013       -1.68636634394329        1.52788520766479
C            2.23598231614593       -1.16402770778354        1.07500576753318
C            1.32498155736768       -0.95742026814038        2.10341027175005
C            0.02483913194102       -0.58817965120240        1.82088193039523
C           -0.38183523432438       -0.40112376063033        0.50201542917130
C           -1.77753148654906       -0.01643227305129        0.18971178806447
C           -2.71940314175599       -1.01289364911408       -0.09790815866826
C           -2.38234471956166       -2.39183274025265       -0.10161087142674
C           -3.31690698085115       -3.34068459566487       -0.38298600840017
C           -4.64670214702194       -2.97290063893289       -0.67721080117731
C           -5.01023119339719       -1.66180565490244       -0.68196185055835
C           -4.06782701148354       -0.64098163453187       -0.39444167287784
C           -4.42164138464267        0.70478863160411       -0.39362994346554
C           -3.49140566372118        1.70045856644672       -0.11157299989517
C           -3.84344187690789        3.07481615754519       -0.11253052605457
C           -2.91966658775580        4.03539691677158        0.16168102139857
C           -1.58679198175474        3.67699671203762        0.45364281517535
C           -1.20874157650174        2.36943754798105        0.46625413167622
C           -2.14121326044429        1.33623231557048        0.18675550076633
C            0.53723180822927       -0.58340311312554       -0.52229747606553
C            1.83916408301672       -0.97260689813455       -0.24225283627650
S            2.92603684417337       -1.27889959630318       -1.60349448945116
H            7.84890859665067        0.75163230686623        0.29343937850866
H            7.14729649031660        1.15902292712227       -2.04555203408953
H            4.96207696437255        0.31435035071562       -2.83350458997073
H            6.35631795981113       -0.49319450566842        1.82062840055321
H            1.63778779571807       -1.17577716163226        3.10638103748905
H           -0.69232825368939       -0.50605507236666        2.61453366019467
H           -1.37913428804148       -2.68340487832772        0.14540081897678
H           -3.07367004991156       -4.39107388487233       -0.33666331445026
H           -5.39576855984531       -3.74171606173328       -0.84287330911205
H           -6.04055037802809       -1.36476390650845       -0.86981603061774
H           -5.44241296219908        0.98801696865927       -0.61015935698018
H           -4.85334414746511        3.34383610390046       -0.35808254033223
H           -3.17112040986888        5.08000226821261        0.11304425902443
H           -0.84440990911372        4.44766946736302        0.61865157536349
H           -0.17599776610229        2.08621869594807        0.66092889752281
H            0.24581120522118       -0.40101999989551       -1.55305227843902
