68

O      5.343397    2.131283   -0.100768
C      5.839178    1.008128   -0.056259
C      7.315210    0.886257   -0.004955
C      8.077004    2.065334    0.046855
C      9.473213    2.015023    0.099245
C     10.127715    0.785799    0.100142
C      9.385627   -0.391464    0.047491
C      7.986053   -0.328587   -0.005679
S      7.097607   -1.831702   -0.075032
O      7.382296   -2.419012   -1.368997
O      7.381813   -2.533810    1.160983
C      5.386006   -1.477850   -0.058183
C      4.490786   -2.552915   -0.051564
C      3.117301   -2.308452   -0.039608
C      2.619775   -0.996376   -0.033668
C      1.170767   -0.734614   -0.021499
C      0.581296    0.128612   -0.953992
C     -0.797129    0.377117   -0.942090
C     -1.645074   -0.228827    0.005656
Si    -3.481949    0.120609    0.003243
C     -4.320612   -0.867076   -1.343164
C     -5.716985   -1.072575   -1.318680
C     -6.362280   -1.807686   -2.317069
C     -5.628840   -2.355581   -3.363688
C     -4.250991   -2.169798   -3.411606
C     -3.603319   -1.434706   -2.413292
C     -4.228318   -0.373973    1.643330
C     -4.541792    0.571307    2.638285
C     -5.098386    0.180328    3.860467
C     -5.355797   -1.162628    4.116414
C     -5.058779   -2.117732    3.150430
C     -4.502305   -1.729093    1.928586
C     -3.725380    1.949075   -0.292404
C     -4.719890    2.440864   -1.158989
C     -4.885601    3.813943   -1.367767
C     -4.061686    4.726803   -0.717279
C     -3.069490    4.269005    0.142672
C     -2.902539    2.897328    0.352933
C     -1.047747   -1.090955    0.940486
C      0.331925   -1.338304    0.925043
C      3.547940    0.062231   -0.039982
C      4.936227   -0.167165   -0.051791
H      7.586298    3.038456    0.047574
H     10.047321    2.938348    0.139323
H     11.214022    0.745940    0.140965
H      9.896188   -1.353320    0.046919
H      4.856534   -3.578601   -0.059489
H      2.431007   -3.154344   -0.047701
H      1.190665    0.616261   -1.712935
H     -1.197125    1.058988   -1.693900
H     -6.327610   -0.660066   -0.514554
H     -7.438852   -1.951408   -2.273657
H     -6.129349   -2.927464   -4.140146
H     -3.673882   -2.598225   -4.227277
H     -2.523574   -1.321147   -2.493346
H     -4.364704    1.634439    2.483592
H     -5.332346    0.930539    4.611730
H     -5.789386   -1.463284    5.066179
H     -5.261038   -3.168036    3.344021
H     -4.285946   -2.508140    1.196624
H     -5.385695    1.766686   -1.695418
H     -5.660561    4.167738   -2.043168
H     -4.191691    5.792789   -0.882244
H     -2.421116    4.977914    0.651291
H     -2.112167    2.579203    1.033783
H     -1.637953   -1.586137    1.710161
H      0.747352   -2.003699    1.679833
H      3.177365    1.088401   -0.022417
