  73
 
 O         -0.0297559111       -3.0300883764        3.0853428850
 S         -0.0344265396       -1.5912150477        3.0173078173
 O         -0.0704051180       -0.8453009229        4.2490890576
 C         -1.4212056085       -1.0712503415        2.0055425810
 C         -2.0900955305        0.1040416609        2.2907972319
 C         -3.1190937049        0.5315807270        1.4789347318
 C         -3.4903955165       -0.2002163915        0.3376218822
 N         -4.5439761238        0.2081116721       -0.4642610827
 C         -4.9143014610       -0.5568253539       -1.5847887252
 C         -3.9516593869       -0.8388203517       -2.5416916355
 C         -4.2134063450       -1.6864451045       -3.6025626584
 C         -5.4555883227       -2.3348731188       -3.6693231656
 C         -6.4214717589       -2.0665060750       -2.7466269218
 C         -6.2333143712       -1.1105778628       -1.6997227128
 C         -7.2974747576       -0.8131893611       -0.8604544301
 C         -7.4735015068        0.3361958103       -0.0388552091
 C         -6.6219349289        1.4220377802        0.1066623335
 C         -7.1451404664        2.6505086632        0.6186043892
 C         -6.3960822879        3.7863545897        0.6908373842
 C         -5.0549457551        3.7768643399        0.2796350980
 C         -4.4792482026        2.5829731450       -0.1150076330
 C         -5.2170484665        1.4115064430       -0.1860746497
 C         -2.8340683345       -1.4221598283        0.1059572682
 C         -1.8071945953       -1.8414653258        0.9241371765
 C          1.3594818901       -1.0528220461        2.0410798941
 C          1.7448500628        0.2752593330        2.0792432652
 C          2.7847892987        0.7142451252        1.2897865936
 C          3.4538404887       -0.1739553146        0.4323310427
 N          4.5079611803        0.2520695835       -0.3320962643
 C          4.9023777647        1.6096193881       -0.4082472826
 C          4.0201771544        2.5648469157       -0.8988900225
 C          4.3823204374        3.8982279076       -0.9323757413
 C          5.6330892382        4.2842258392       -0.4746746004
 C          6.5182768771        3.3363907928       -0.0029514018
 C          6.1812803133        1.9813477618        0.0211201864
 C          7.1616172220        1.0100958182        0.4770298962
 C          7.3219794641       -0.2334011616        0.0068851581
 C          6.5482490418       -0.8574062939       -1.0533408242
 C          7.1761629770       -1.7475073995       -1.9271931253
 C          6.4890310725       -2.3217137853       -2.9772375682
 C          5.1503483757       -2.0205281541       -3.1774837916
 C          4.5035478632       -1.1579638819       -2.3126368591
 C          5.1875152857       -0.5920955714       -1.2433522366
 C          3.0646756627       -1.5226444164        0.4314953691
 C          2.0223337704       -1.9505570269        1.2243325641
 H         -1.8076572731        0.6612696927        3.1700696830
 H         -3.6547622640        1.4276694037        1.7463632207
 H         -2.9808119025       -0.3708605191       -2.4528441915
 H         -3.4682046875       -1.8514073269       -4.3641803827
 H         -5.6453550607       -3.0388718975       -4.4659240088
 H         -7.3873099158       -2.5450626588       -2.8148933242
 H         -8.1671780268       -1.4504354641       -0.9492625900
 H         -8.4559733350        0.4381000978        0.4023670720
 H         -8.1856886891        2.6654112127        0.9076829796
 H         -6.8346385101        4.7047030155        1.0520218804
 H         -4.4763833594        4.6866945875        0.2784133026
 H         -3.4331676333        2.5535350402       -0.3873721510
 H         -3.1467581191       -2.0591620789       -0.7052143847
 H         -1.3106573088       -2.7827089436        0.7490113544
 H          1.2334841774        0.9483805097        2.7491346057
 H          3.0991147768        1.7449426473        1.3431304979
 H          3.0421745252        2.2525243694       -1.2352674003
 H          3.6880456859        4.6358039966       -1.3055564803
 H          5.9150185504        5.3262082958       -0.4868436916
 H          7.4955762619        3.6368350840        0.3460316893
 H          7.8750869530        1.3847561713        1.1996215734
 H          8.1590339947       -0.8174572354        0.3671448117
 H          8.2213253828       -1.9759526322       -1.7766789640
 H          6.9944102839       -3.0055113693       -3.6423464922
 H          4.6099462984       -2.4643794642       -3.9998069828
 H          3.4562704605       -0.9289986249       -2.4464278952
 H          3.5964954325       -2.2329706468       -0.1821008083
 H          1.7203712635       -2.9859085142        1.2396194075
