  90
 
 C         -5.0845718410        0.0073428602        2.3078046870
 C         -5.2975717975       -0.2890802528        0.8184945719
 C         -6.3125561277        0.6905239461        0.2199719551
 C         -5.7222858271       -1.7254041835        0.6071778887
 C         -6.8537389883       -2.3604095419        1.0389150077
 C         -7.0367694333       -3.7126317491        0.7305637770
 C         -6.0775789187       -4.4093839312       -0.0084602169
 C         -4.9348276385       -3.7915241731       -0.4538717171
 C         -4.7382613816       -2.4272078221       -0.1543603266
 C         -3.6938602122       -1.5472669764       -0.4807281041
 C         -2.4968362038       -1.7314877862       -1.2244621150
 C         -1.6387295156       -0.6900527775       -1.3798124738
 C         -1.9192475137        0.5938826303       -0.8231657464
 N         -1.0127468054        1.6137251558       -0.9403901678
 C         -1.4469512514        2.9421083124       -1.0196485004
 C         -2.5989398805        3.2557932676       -1.7438238304
 C         -3.0040906006        4.5660100204       -1.8828989897
 C         -2.2569198467        5.5877964143       -1.3083723947
 C         -1.1185502567        5.2845659417       -0.5850989293
 C         -0.7006836423        3.9700921721       -0.4101953962
 C          0.4667324805        3.6848259212        0.4378657825
 C          0.3610269715        2.8136149775        1.5197109558
 C          1.4418412900        2.5865171661        2.3477136260
 C          2.6452921473        3.2327643959        2.1118394740
 C          2.7614945080        4.0996285916        1.0375717377
 C          1.6805322788        4.3303038522        0.2092237181
 C          0.3429074110        1.3460003132       -1.1475671619
 C          1.0122508418        2.0563240326       -2.1529219225
 C          2.3183500796        1.7864778249       -2.4881243459
 C          3.0102640541        0.7562022571       -1.8442194714
 C          2.3704920936        0.0620430873       -0.8493635623
 C          1.0509150196        0.3468147584       -0.4431034315
 C          0.7414827039       -0.4728563385        0.7086266981
 C         -0.3589888599       -0.5418808601        1.5620108332
 C         -0.3401519566       -1.4318165900        2.6196644390
 C          0.7537307304       -2.2518461498        2.8572742571
 C          1.8654284349       -2.1868060102        2.0258488106
 C          1.8502912819       -1.3032254603        0.9734812657
 C          2.9415384389       -1.0709939935       -0.0371130121
 C          4.2969951291       -0.7862411299        0.5542681360
 C          4.6552042716        0.2339764951        1.4068690096
 C          5.9755247797        0.3084256315        1.8293673026
 C          6.9113896904       -0.6222800716        1.4031872736
 C          6.5544009285       -1.6485160205        0.5430523514
 C          5.2389957800       -1.7283851834        0.1164579781
 C          4.5716016129       -2.6672937814       -0.7714650544
 C          5.0465375533       -3.7717284384       -1.4593253150
 C          4.1626566677       -4.4955771801       -2.2434812664
 C          2.8290246065       -4.1276156666       -2.3386963832
 C          2.3457851204       -3.0219074662       -1.6519787323
 C          3.2229246065       -2.2980755247       -0.8750905017
 C         -3.1395416366        0.7926728863       -0.1025708121
 C         -3.9854824706       -0.2480275103        0.0678951874
 H         -4.3559295514       -0.6842365886        2.7257892698
 H         -4.7199680867        1.0233052690        2.4442202497
 H         -6.0193474323       -0.1032956721        2.8523274392
 H         -6.4622044232        0.4762342132       -0.8362387646
 H         -7.2688916325        0.6020561602        0.7299475491
 H         -5.9573236130        1.7138952203        0.3208748461
 H         -7.6038173228       -1.8362488551        1.6142169882
 H         -7.9257140955       -4.2229750433        1.0688259458
 H         -6.2448334524       -5.4539375024       -0.2305974341
 H         -4.1951796152       -4.3316790573       -1.0254386762
 H         -2.2897161929       -2.6906866380       -1.6732924167
 H         -0.7412153098       -0.8005816425       -1.9701470654
 H         -3.1508027486        2.4577672596       -2.2190704323
 H         -3.8911459449        4.7960970026       -2.4531401925
 H         -2.5666629832        6.6152489950       -1.4232406469
 H         -0.5480650171        6.0742101175       -0.1181501584
 H         -0.5822403464        2.3293287557        1.7238230033
 H          1.3431905979        1.9062406155        3.1812872938
 H          3.4865416402        3.0724945888        2.7703340424
 H          3.6993506373        4.6011927120        0.8481233480
 H          1.7736079443        5.0026048398       -0.6315021834
 H          0.4668258701        2.8190898363       -2.6907803720
 H          2.8010173683        2.3541080577       -3.2684900100
 H          4.0258107900        0.5153751900       -2.1193919780
 H         -1.2281383000        0.0769347827        1.4149995094
 H         -1.1969554127       -1.4869563336        3.2761312659
 H          0.7430619817       -2.9379404093        3.6908336494
 H          2.7281203521       -2.8128239737        2.2035460873
 H          3.9215649740        0.9569117249        1.7300735602
 H          6.2790512315        1.1007839731        2.4980770884
 H          7.9331395560       -0.5446877529        1.7459225073
 H          7.2876401179       -2.3693736350        0.2125731328
 H          6.0835799278       -4.0642304838       -1.3859059026
 H          4.5159426152       -5.3599287328       -2.7869553861
 H          2.1580525783       -4.7092150457       -2.9537776691
 H          1.3055346335       -2.7381896782       -1.7205755214
 H         -3.3361562208        1.7625577900        0.3324166559
