74

N      0.000179    0.985566   -0.000747
C      0.000116   -0.175518   -0.001126
C      0.000068   -1.615010   -0.001770
C     -1.223585   -2.315036   -0.002427
C     -2.532824   -1.652219   -0.002777
C     -3.285612   -1.559508   -1.183933
C     -4.526075   -0.916435   -1.190017
C     -5.038913   -0.355153   -0.013902
N     -6.296627    0.317912   -0.023901
C     -6.373270    1.743359   -0.157657
C     -5.237311    2.561044   -0.292334
C     -5.358487    3.948820   -0.421277
C     -6.616498    4.544715   -0.420824
C     -7.754848    3.752887   -0.293666
C     -7.632529    2.365530   -0.164803
O     -8.815012    1.670584   -0.052498
C     -8.743007    0.302394    0.076026
C     -9.969095   -0.360587    0.191370
C    -10.002713   -1.745352    0.333430
C     -8.811349   -2.464822    0.362132
C     -7.585535   -1.800443    0.246343
C     -7.528960   -0.403648    0.096992
C     -4.296838   -0.453227    1.169601
C     -3.056516   -1.096379    1.175093
C     -1.150318   -3.706316   -0.004621
N      0.000242   -4.413666   -0.003733
C      1.150724   -3.706192   -0.001800
C      1.223758   -2.314907   -0.001979
C      2.532840   -1.651891   -0.000644
C      3.059163   -1.099714   -1.179089
C      4.299388   -0.456375   -1.172763
C      5.038613   -0.354460    0.012230
N      6.296438    0.318366    0.023157
C      6.373249    1.743877    0.156035
C      5.237259    2.562117    0.286221
C      5.358651    3.949940    0.415131
C      6.616912    4.545290    0.418895
C      7.755293    3.752887    0.295492
C      7.632756    2.365521    0.166709
O      8.815263    1.670006    0.058170
C      8.743028    0.301789   -0.070019
C      9.969126   -0.361811   -0.181552
C     10.002510   -1.746628   -0.322789
C      8.810946   -2.465604   -0.354891
C      7.585122   -1.800648   -0.242891
C      7.528772   -0.403751   -0.094170
C      4.523051   -0.912012    1.188980
C      3.282726   -1.555278    1.182043
H     -2.906948   -1.977101   -2.115151
H     -5.093177   -0.840843   -2.115005
H     -4.237687    2.134193   -0.301484
H     -4.465400    4.560875   -0.522842
H     -6.710164    5.622765   -0.521402
H     -8.739541    4.212085   -0.295797
H    -10.895471    0.206922    0.171724
H    -10.955129   -2.260955    0.423926
H     -8.831729   -3.545842    0.476382
H     -6.676957   -2.395093    0.278374
H     -4.686648   -0.019916    2.087870
H     -2.500317   -1.152811    2.109101
H     -2.052807   -4.314980   -0.003240
H      2.053302   -4.314696   -0.004050
H      2.505074   -1.159336   -2.114128
H      4.691314   -0.026005   -2.091523
H      4.237413    2.135731    0.291906
H      4.465524    4.562458    0.513225
H      6.710735    5.623330    0.519461
H      8.740178    4.211644    0.300544
H     10.895708    0.205286   -0.159451
H     10.954939   -2.262698   -0.410252
H      8.831128   -3.546676   -0.468877
H      6.676382   -2.394890   -0.277450
H      5.088027   -0.833413    2.115012
H      2.901982   -1.970049    2.113679
