  56
 
 O          4.2870250659       -0.8890318771       -0.4065190855
 C          5.1486233102       -0.1573045933        0.0218722503
 C          4.8642760883        1.2853206714        0.4297443377
 C          3.5949692950        1.7900364739       -0.1833854936
 C          2.3624048604        1.2150735806        0.0967704799
 C          1.2485257336        1.7347793443       -0.5651660781
 C         -0.1105461065        1.2186298985       -0.3840240490
 C         -0.4671091696        0.4152924504        0.6988400610
 C         -1.7584401458       -0.0520662587        0.8310570378
 C         -2.7239878628        0.2696556304       -0.1195032524
 N         -4.0411002389       -0.2135406428        0.0160132565
 C         -4.3004291853       -1.5861947169       -0.0115144328
 C         -3.3012992552       -2.5265054611       -0.2295398086
 C         -3.5941773571       -3.8817051419       -0.2541830233
 C         -4.8902165020       -4.3193950861       -0.0732175529
 C         -5.9044455668       -3.3916198629        0.1133004568
 C         -5.6181515065       -2.0395140574        0.1366599863
 O         -6.6793666343       -1.1826526975        0.2927771215
 C         -6.4094353129        0.1633191918        0.3061875030
 C         -7.4857198911        1.0150268337        0.4702008845
 C         -7.2908972256        2.3872100449        0.5280837076
 C         -6.0112684578        2.8957875583        0.4390877798
 C         -4.9282941503        2.0459470978        0.2720929963
 C         -5.1095672122        0.6716546722        0.1798243454
 C         -2.3768207115        1.0764409319       -1.2010100402
 C         -1.0875257515        1.5464531664       -1.3262808764
 N          1.3899802081        2.7506665303       -1.4246832231
 C          2.6012975205        3.2237580023       -1.6105833367
 N          3.7139680699        2.8011410696       -1.0393947394
 C          6.5497221211       -0.6159920640        0.1865876084
 C          6.9330959052       -1.7730824022       -0.4931514285
 C          8.2212298437       -2.2588809110       -0.3851886646
 C          9.1416444292       -1.6016736128        0.4153452120
 C          8.7669245183       -0.4603272644        1.1066318556
 C          7.4816120148        0.0360574708        0.9928057027
 H          5.6840592290        1.9324261299        0.1179695983
 H          4.7851964671        1.3016186700        1.5206101866
 H          2.2899581211        0.3817818267        0.7742184590
 H          0.2571867590        0.1686979383        1.4596753842
 H         -2.0323996047       -0.6650020004        1.6773495767
 H         -2.2865829396       -2.1981095654       -0.3907448087
 H         -2.7965996798       -4.5892767350       -0.4208257900
 H         -5.1228660694       -5.3724726755       -0.0871611228
 H         -6.9308648082       -3.6978883865        0.2374329052
 H         -8.4697567088        0.5826356970        0.5565660517
 H         -8.1371482454        3.0440623098        0.6532966534
 H         -5.8403574216        3.9594582921        0.5022153981
 H         -3.9321835642        2.4566280288        0.2210131892
 H         -3.1244190524        1.3228666945       -1.9405418012
 H         -0.8057952962        2.1691643188       -2.1605375341
 H          2.6989547977        4.0476616480       -2.3070969321
 H          6.1996484567       -2.2729288188       -1.1081664912
 H          8.5087726487       -3.1505102705       -0.9219462272
 H         10.1494810987       -1.9791993666        0.5041565162
 H          9.4822450837        0.0461670506        1.7376719916
 H          7.2069709882        0.9194562451        1.5483052990
