61
 xtb: 6.7.1 (edcfbbe)
C            5.36651554509443        2.52370456363961       -0.05561587166711
C            4.62337481476705        1.22530292127924       -0.02719105691017
C            3.23502214461755        1.20349874326971       -0.02603889333623
C            2.54258214057303       -0.00001120451436       -0.00001561555089
N            1.11879092608826       -0.00000349960801       -0.00001160673393
C            0.44643578494423       -0.06013240814441        1.20955778095635
C            1.16947744811240       -0.11318684764675        2.40515556433043
C            0.52480492811266       -0.14342748782639        3.62426586548017
C           -0.85797553491487       -0.11097990856479        3.67622077094200
C           -1.57704426893612       -0.06040451440049        2.49638049418872
C           -0.95102240438870       -0.04139920563504        1.25815134494376
C           -1.80509955705438       -0.00000332635862        0.00000209922291
C           -2.63198618118924        1.28160132179543       -0.02191455745886
C           -3.87009231679931        1.35844938447251       -0.65017641436159
C           -4.56255333905764        2.55563934409528       -0.70874362350783
C           -4.02675309243344        3.70219300737443       -0.14896624040550
C           -2.78604576818554        3.64229073338732        0.46169491406235
C           -2.09530179657050        2.44516963986495        0.51913476884059
C           -2.63199960191166       -1.28159879042263        0.02193912764902
C           -3.87010568494895       -1.35842838642569        0.65020229118802
C           -4.56258946257269       -2.55560506291451        0.70875990985194
C           -4.02681112741576       -3.70216507352082        0.14897539703722
C           -2.78610563950570       -3.64228089281272       -0.46169037372806
C           -2.09534003385356       -2.44517243193657       -0.51912367014012
C           -0.95103238971889        0.04138089398601       -1.25815416692639
C           -1.57706614141479        0.06037469397221       -2.49637654534013
C           -0.85800856728656        0.11094026214858       -3.67622360835961
C            0.52477224951944        0.14338618615887       -3.62428242663052
C            1.16945665993373        0.11315499698431       -2.40517851933409
C            0.44642592670680        0.06011355483569       -1.20957378697532
C            3.23500087598571       -1.20353303931785        0.02600400169968
C            4.62335303511949       -1.22536253777416        0.02715745904271
C            5.36646563751551       -2.52377969116881        0.05558106403074
C            5.28721587259684       -0.00003474173975       -0.00001555920740
Br           7.20695827318322        0.00012392513539        0.00004920800191
H            6.00424802091061        2.58170309999182        0.91826786476652
H            4.67605915082907        3.35923425964729        0.04421358684625
H            6.01038946197298        2.60419887429913       -0.84003985477311
H            2.68461228032729        2.13111929768009        0.02859027366266
H            2.24815620753671       -0.12580157903440        2.37294764849027
H            1.10606578713358       -0.17493863862745        4.53414213048292
H           -1.37267542171541       -0.10432531992998        4.62526372457351
H           -2.65426244415991       -0.01356209493449        2.53763632118487
H           -4.31072558397813        0.47169437849307       -1.09659104653266
H           -5.52670520343719        2.58339277798265       -1.21047314064266
H           -4.56943991935816        4.63410156327251       -0.21827329415953
H           -2.35179875639759        4.53669312597436        0.87004155064465
H           -1.12644073933644        2.42091582321382        0.98353149100017
H           -4.31066443208297       -0.47179904483430        1.09666958367205
H           -5.52652819829800       -2.58356178661995        1.21055025327208
H           -4.56919068642948       -4.63420146242873        0.21827721582714
H           -2.35159132208511       -4.53665488110911       -0.87011130032847
H           -1.12634804390838       -2.42081470169315       -0.98360125686232
H           -2.65426892572615        0.01372642213991       -2.53762849988610
H           -1.37268676840714        0.10451701306912       -4.62525779170256
H            1.10605625089078        0.17507052395022       -4.53414269482875
H            2.24815303042987        0.12585843397001       -2.37295346255483
H            2.68451739951183       -2.13115140552341       -0.02860223378579
H            4.67590386390562       -3.35935489317174       -0.04422760984161
H            6.01027549928072       -2.60437867153421        0.84001665193124
H            6.00412297520397       -2.58188420701032       -0.91829073433477
