  117
 
 C         -4.3718728602      -10.2518933415        2.8075215861
 C         -3.6612958216       -9.2895587055        1.9021713531
 C         -3.4569497765       -7.9723071459        2.3276892049
 C         -2.8157462769       -7.0363241160        1.5418781013
 C         -2.3794718698       -7.4357791154        0.2870086025
 C         -2.5462511814       -8.7682000841       -0.1501863344
 C         -3.1947328395       -9.6891886307        0.6625036741
 C         -1.9246296455       -8.8528727585       -1.4423515580
 C         -1.7675568318       -9.8760853890       -2.3681202613
 C         -1.1028591998       -9.6051247144       -3.5474998157
 C         -0.6037579615       -8.3319174900       -3.8156469219
 C         -0.7489174847       -7.2963039750       -2.9128771710
 C         -1.4042992727       -7.5677309516       -1.7209704462
 N         -1.7011676235       -6.7188629593       -0.6760918398
 C         -1.3551904489       -5.3591747657       -0.6073975890
 C         -0.0082408311       -5.0045689143       -0.6139323098
 C          0.3662478671       -3.6807903592       -0.5394216383
 C         -0.6110632999       -2.6906223012       -0.4583194968
 C         -0.2288765549       -1.2828217714       -0.3700802138
 N          1.0678399221       -0.9912551617       -0.3209869482
 C          1.3719589908        0.3006307720       -0.2360813923
 C          2.7848920246        0.6686400094       -0.1731492108
 C          3.7702670708       -0.3164735310       -0.2017239205
 C          5.0985460134        0.0455236159       -0.1512332474
 C          5.4629724505        1.3875864508       -0.0702809901
 N          6.8266973458        1.7200594161       -0.0271334027
 C          7.5116411069        2.4745756649       -0.9541533078
 C          7.0634687096        3.0164960847       -2.1501891410
 C          7.9711658831        3.7219558100       -2.9165124569
 C          9.2962849203        3.8764728036       -2.5146092834
 C          9.7551843744        3.3100366561       -1.3420077228
 C          8.8625745052        2.5963721431       -0.5532870074
 C          8.9898431366        1.8631209056        0.6753372284
 C         10.0482393790        1.6212597140        1.5419501268
 C          9.8352055551        0.8566923385        2.6750862139
 C         10.9529975321        0.5658116035        3.6324436412
 C          8.5587958230        0.3462626473        2.9375178498
 C          7.4885044032        0.5727320495        2.0963443203
 C          7.7135654688        1.3279988826        0.9551659408
 C          4.4842644682        2.3878099283       -0.0063247055
 C          4.8578130351        3.8279909975        0.1678929547
 C          3.1546600189        2.0069833481       -0.0696218863
 N          0.4693471295        1.2773716888       -0.2065783671
 C         -0.8035098258        0.8957151925       -0.2647124419
 C         -1.8326740575        1.9332917407       -0.2441951336
 C         -3.1793438619        1.5912033059       -0.3517601046
 C         -4.1374442174        2.5811188817       -0.3467111153
 C         -3.7700302196        3.9199387241       -0.2321639922
 N         -4.7726393973        4.9031266463       -0.2403604708
 C         -4.9176972158        5.9106294672       -1.1687861068
 C         -4.1834922268        6.1571719665       -2.3199550231
 C         -4.5542411526        7.2352519869       -3.1004177212
 C         -5.6358655371        8.0433978216       -2.7564473356
 C         -6.3906028278        7.7812634798       -1.6303543809
 C         -6.0382988408        6.7036841178       -0.8285612674
 C         -6.5973481858        6.1277984239        0.3627453408
 C         -7.6815484926        6.4544010997        1.1674103125
 C         -7.9591290092        5.6782002603        2.2784598119
 C         -9.1255162871        5.9918950674        3.1682901478
 C         -7.1416807139        4.5834134635        2.5814301417
 C         -6.0566306312        4.2373028460        1.8021259137
 C         -5.7936185625        5.0117188918        0.6820976253
 C         -2.4235500551        4.2779247978       -0.0863702783
 C         -2.0190695593        5.7044553442        0.1267667823
 C         -1.4731946074        3.2712718175       -0.1061860073
 N         -1.1979826002       -0.3720145870       -0.3429469117
 C         -1.9562324489       -3.0497901424       -0.4753522568
 C         -2.3502328818       -4.3744713298       -0.5577847855
 C         -3.8016796011       -4.7368251753       -0.6326955731
 H         -4.4263407984      -11.2402333724        2.3583280041
 H         -5.3857191673       -9.9067847093        3.0090997089
 H         -3.8526698620      -10.3323074698        3.7620045393
 H         -3.8086698600       -7.6850298291        3.3084370992
 H         -2.6415355427       -6.0326074773        1.9006510188
 H         -3.3250994923      -10.7083541622        0.3293102180
 H         -2.1606389672      -10.8611918365       -2.1663259411
 H         -0.9687524969      -10.3880487411       -4.2791708443
 H         -0.0943033340       -8.1507123439       -4.7506676390
 H         -0.3686469197       -6.3082894790       -3.1265630114
 H          0.7361565787       -5.7855744741       -0.6682794671
 H          1.4053348088       -3.3939892352       -0.5368430476
 H          3.4758922670       -1.3511630104       -0.2702899045
 H          5.8755083255       -0.7043187249       -0.1837507106
 H          6.0450796574        2.8734432355       -2.4801818811
 H          7.6486895188        4.1577041756       -3.8508766094
 H          9.9746637302        4.4367712082       -3.1407860939
 H         10.7879755481        3.4113249754       -1.0441696581
 H         11.0257537712        2.0292713338        1.3304770262
 H         11.1363634845       -0.5069828100        3.6877237616
 H         10.6976385092        0.9109086450        4.6337546212
 H         11.8707155609        1.0572442730        3.3196409601
 H          8.4108590236       -0.2427475732        3.8313808640
 H          6.5085024940        0.1777890438        2.3198215954
 H          4.0260057414        4.3829699330        0.5943267430
 H          5.7215960942        3.9239788378        0.8236456196
 H          5.1181148854        4.2843169696       -0.7868759765
 H          2.3752059999        2.7519014987       -0.0245383649
 H         -3.4505414329        0.5523357483       -0.4474933193
 H         -5.1849045828        2.3347431813       -0.4424165613
 H         -3.3635185175        5.5152901800       -2.6064571322
 H         -3.9979845303        7.4527077322       -4.0005192050
 H         -5.8926609794        8.8781102878       -3.3916850244
 H         -7.2424418795        8.3948659947       -1.3784044428
 H         -8.2982434841        7.3075730753        0.9255315226
 H         -8.7943243806        6.1343618458        4.1963188901
 H         -9.6340311074        6.8944657689        2.8391284441
 H         -9.8407925800        5.1696654993        3.1607880536
 H         -7.3705635647        3.9936219522        3.4575488445
 H         -5.4316704190        3.3941622607        2.0568094737
 H         -1.0489506832        5.7507896405        0.6151298263
 H         -2.7514583450        6.2233765257        0.7429085596
 H         -1.9494074373        6.2386000420       -0.8205483530
 H         -0.4268552104        3.5121631795        0.0015422408
 H         -2.6965893475       -2.2657121291       -0.4355364478
 H         -4.1777437249       -5.0517048419        0.3404670410
 H         -3.9555454841       -5.5620743254       -1.3260990105
 H         -4.3862962055       -3.8822359568       -0.9636034116
