  49
 
 C          5.9142255790       -0.5401936980       -0.4302325954
 C          4.9010131252        0.2779702293        0.3677829085
 C          5.0689843715       -0.0021257928        1.8640896620
 C          5.0909413076        1.7665613504        0.0607762023
 N          3.5375487793       -0.1259031594       -0.0360547216
 C          2.4142599138        0.4532045930        0.4674657763
 O          2.3768115754        1.3715311109        1.2632188873
 C          1.2010099118       -0.1951019924       -0.0965405221
 C         -0.0986736575        0.1840836782        0.1867521815
 C         -1.1504376183       -0.5180499821       -0.4126156925
 N         -2.4655322331       -0.1469976016       -0.1663212268
 C         -2.9613136327        1.1504120906       -0.1965418302
 C         -2.3171068412        2.3385835281       -0.5073797502
 C         -3.0675147067        3.5006662549       -0.5044688461
 C         -4.4290390757        3.4870224057       -0.2128475491
 C         -5.0817555679        2.3025443618        0.0679032646
 C         -4.3475423975        1.1238249809        0.0712058892
 C         -4.7007914992       -0.2537509608        0.2875069780
 C         -5.8923609158       -0.8886312997        0.6125485887
 C         -5.8854828760       -2.2590513881        0.7856034829
 C         -4.7066938627       -2.9893103626        0.6576946953
 C         -3.5091524708       -2.3777257173        0.3328686616
 C         -3.5168888945       -1.0062301748        0.1260299251
 C         -0.8708091239       -1.5911669538       -1.2688753505
 C          0.4344826683       -1.9709527590       -1.5384809377
 C          1.4553669449       -1.2577034543       -0.9475621862
 S          3.2138455285       -1.4482880949       -1.0742540277
 O          3.6653226320       -2.6677855372       -0.4680515476
 O          3.6860694750       -1.1644199912       -2.3978415150
 H          5.7915414029       -0.3696797594       -1.4966047259
 H          5.7900593334       -1.6023371703       -0.2365345369
 H          6.9186751464       -0.2446264121       -0.1386413155
 H          6.0743838276        0.2661011070        2.1753317423
 H          4.9062196887       -1.0592496282        2.0643196132
 H          4.3552936071        0.5815133001        2.4398919760
 H          6.1028316908        2.0624063478        0.3218360353
 H          4.3901425760        2.3665033868        0.6345066825
 H          4.9308100368        1.9526752018       -0.9990669497
 H         -0.2822578817        0.9945761566        0.8745653968
 H         -1.2673262797        2.3642579597       -0.7560390845
 H         -2.5855033588        4.4384767616       -0.7381627731
 H         -4.9798399418        4.4158255803       -0.2178850622
 H         -6.1410505877        2.2878586761        0.2741932614
 H         -6.8006495859       -0.3182829421        0.7334706763
 H         -6.8015485043       -2.7731917153        1.0359201118
 H         -4.7253939898       -4.0569456389        0.8194715423
 H         -2.5998700933       -2.9542607162        0.2616961799
 H         -1.6871349609       -2.1129386976       -1.7431364243
 H          0.6518374354       -2.7916994618       -2.2025101499
