  114
 
 C          8.3483142101        5.5173938830       -0.2750201644
 C          8.8620373872        4.0765480182       -0.2089651591
 C          9.7312826150        3.9399721789        1.0492736584
 C          9.7146076826        3.8183425815       -1.4594796199
 C          7.7405945607        3.0483912608       -0.1515901499
 C          6.3903394340        3.4081767924       -0.1768722230
 C          5.3688480024        2.4775287848       -0.1202938473
 C          5.7061264853        1.1380875060       -0.0262970270
 C          7.0625939670        0.7459542921       -0.0252750589
 C          8.0655980883        1.7001326068       -0.0833141804
 C          7.0716872998       -0.6902251008        0.0264868344
 C          8.0936802135       -1.6292162683        0.0688613925
 C          7.7861232025       -2.9778010321        0.1398512390
 C          8.8529287594       -4.0623882957        0.1830637012
 C          8.6619745399       -5.0054146886       -1.0133383174
 C          8.7179768323       -4.8507335574        1.4935336491
 C         10.2730688998       -3.4937660148        0.1154822193
 C          6.4371009908       -3.3543921864        0.1850134383
 C          5.4015993710       -2.4431713098        0.1442788626
 C          5.7216955565       -1.0980140007        0.0459483975
 N          4.9030286535        0.0144703995        0.0156763458
 C          3.5034898641        0.0049703704        0.0195194626
 C          2.8070345081        0.8201625574        0.9052750348
 C          1.4145116565        0.8313706306        0.9165869774
 C          0.6696592632        1.6579205048        1.8103117538
 C         -0.6829209965        1.6509949388        1.8114147229
 C         -1.4207388318        0.8177103254        0.9180918299
 C         -2.8130842778        0.7932263327        0.9082405332
 C         -3.5029608664       -0.0251957127        0.0201722971
 N         -4.9023763332       -0.0270253980        0.0164105322
 C         -5.7127657891       -1.1461513966        0.0356832313
 C         -5.3852174856       -2.4887706031        0.1187911286
 C         -6.4130726945       -3.4136488954        0.1489522561
 C         -7.7605993420       -3.0452328045        0.1080851935
 C         -8.8889648353       -4.0670970883        0.1321074465
 C         -8.3850679466       -5.5118277587        0.1881080648
 C         -9.7628292294       -3.8203883832        1.3701338377
 C         -9.7341389377       -3.9083005063       -1.1398952920
 C         -8.0762997052       -1.6941480452        0.0536422311
 C         -7.0667225655       -0.7457070091        0.0220209147
 C         -7.0666495130        0.6909915978       -0.0127095621
 C         -8.0827831552        1.6362959567       -0.0558067487
 C         -7.7668498756        2.9837921452       -0.1079478088
 C         -8.8268185465        4.0750852503       -0.1495687579
 C         -8.6426210409        5.0029045031        1.0596978194
 C         -8.6737521858        4.8777581410       -1.4492739747
 C        -10.2507705926        3.5139986757       -0.1031036168
 C         -6.4152845777        3.3527935915       -0.1348566947
 C         -5.3855310876        2.4351126922       -0.0929121435
 C         -5.7141579190        1.0908227637       -0.0119973876
 C         -2.8061309440       -0.8407143343       -0.8651179058
 C         -1.4136777676       -0.8567441676       -0.8718430255
 C         -0.6689068154       -1.6851558695       -1.7639177374
 C          0.6836632002       -1.6803157650       -1.7631443121
 C          1.4214828224       -0.8457867378       -0.8709937793
 C          2.8137704438       -0.8189873311       -0.8634296008
 C          0.7068826833       -0.0106596775        0.0232568118
 C         -0.7060131685       -0.0167788175        0.0233752361
 H          9.1941318163        6.2016591600       -0.3059766981
 H          7.7517654860        5.7614557082        0.6010239457
 H          7.7527655067        5.6809233634       -1.1702338383
 H          9.1294536889        4.1040578026        1.9408490188
 H         10.1771671682        2.9517097138        1.1177260226
 H         10.5334008926        4.6751431570        1.0338157046
 H         10.5134377044        4.5540132521       -1.5284974463
 H         10.1640329707        2.8295871835       -1.4354008349
 H          9.0997500817        3.8907606231       -2.3543087134
 H          6.1116333128        4.4465671105       -0.2474678493
 H          4.3378528518        2.7962070207       -0.1623581737
 H          9.0946999460        1.3752305869       -0.0798256353
 H          9.1132368463       -1.2819083037        0.0501623181
 H          9.4294405227       -5.7768429693       -1.0095985443
 H          7.6912202427       -5.4923487211       -0.9844612693
 H          8.7363148327       -4.4486844985       -1.9453430158
 H          9.4875414324       -5.6179227858        1.5512163101
 H          8.8303177326       -4.1836213855        2.3458191574
 H          7.7485311798       -5.3356167312        1.5671709752
 H         10.4280908915       -2.9380447675       -0.8065201154
 H         10.9922932018       -4.3102032948        0.1406884604
 H         10.4748345140       -2.8432962534        0.9634277641
 H          6.1821743348       -4.4007149369        0.2592599428
 H          4.3755189746       -2.7750542014        0.2010144631
 H          3.3530676966        1.4391972618        1.6018525850
 H          1.2188250301        2.2934983480        2.4904506112
 H         -1.2374249414        2.2808092615        2.4925904592
 H         -3.3639129953        1.4047209483        1.6076789943
 H         -4.3570237041       -2.8146820434        0.1720806317
 H         -6.1417062949       -4.4545552713        0.2105752276
 H         -7.8061346117       -5.6906633268        1.0912591257
 H         -7.7748686664       -5.7481622395       -0.6806196831
 H         -9.2353546890       -6.1911961507        0.1953971853
 H         -9.1649293290       -3.9081774883        2.2750110982
 H        -10.2063335915       -2.8288657854        1.3509990134
 H        -10.5668669672       -4.5522601627        1.4147272875
 H        -10.5410106226       -4.6383578644       -1.1489353091
 H         -9.1170773335       -4.0645017379       -2.0224337584
 H        -10.1723808232       -2.9162807863       -1.2033012770
 H         -9.1032154589       -1.3626943656        0.0397735752
 H         -9.1044243328        1.2946784188       -0.0523948298
 H         -8.7298060795        4.4358509521        1.9843132422
 H         -7.6688146121        5.4843394140        1.0464367533
 H         -9.4054780377        5.7788697258        1.0571176676
 H         -7.7008994372        5.3578712215       -1.5072420335
 H         -9.4383137599        5.6499868043       -1.5058768643
 H         -8.7810204821        4.2212906848       -2.3104067841
 H        -10.4476638159        2.8747933189       -0.9606887623
 H        -10.9649291994        4.3349206311       -0.1258916384
 H        -10.4183815833        2.9483755528        0.8106192029
 H         -6.1534699717        4.3983072016       -0.1951775589
 H         -4.3572150261        2.7619936054       -0.1358155971
 H         -3.3516614841       -1.4555754778       -1.5657252988
 H         -1.2181350198       -2.3203753043       -2.4443424396
 H          1.2381958483       -2.3116278850       -2.4428977322
 H          3.3647639957       -1.4317308195       -1.5616930013
