  85
 
 C         -2.9964099974       -4.1396449424       -3.0780464762
 C         -2.6233193603       -2.6745427642       -2.8921320591
 C         -3.8568634225       -1.7802760597       -2.7980856549
 C         -3.4733537056       -0.3135880785       -2.6249382936
 C         -4.6981677619        0.5892161413       -2.5027754417
 C         -4.3421755870        2.0796406905       -2.3884054037
 N         -3.6445836835        2.4076603525       -1.1674962044
 C         -2.2485039602        2.3903433330       -1.0996636560
 C         -1.4231186178        2.2164994979       -2.2092935050
 C          0.0587344283        2.1930286405       -2.1122082505
 C          0.5499371778        1.8390577766       -0.7333370309
 C          1.7338008235        1.1045954718       -0.6117565672
 C          2.0553453734        0.3154985054        0.6153501676
 C          1.1283479598       -0.8756285454        0.7976467967
 C         -0.2444810740       -0.9087739417        0.8163089861
 C         -0.9133714895       -2.1173868016        1.0271697481
 C         -2.3830881278       -2.1276128712        1.0323890860
 C         -3.0977474239       -3.2362903580        0.5780382740
 C         -4.4789478501       -3.2269327595        0.5359936943
 C         -5.1527520319       -2.0921931264        0.9497899338
 F         -6.5030359040       -2.0712137023        0.8905404444
 C         -4.4803909315       -0.9792525278        1.4195882126
 C         -3.1002258366       -1.0086030165        1.4625099976
 C         -0.1619791065       -3.2806452296        1.2115358528
 C          1.2202005952       -3.2600777600        1.1619045251
 C          1.8735130557       -2.0552769633        0.9461266692
 C          3.2816231794       -1.7310156797        0.8202307187
 C          4.4116597796       -2.5326127754        0.8581985946
 C          5.6501500627       -1.9485795657        0.6659788349
 C          5.7818620768       -0.5772005882        0.4425881096
 C          7.1102914842        0.0156202348        0.2323840071
 C          7.4428635517        1.2374578247        0.8152898290
 C          8.6902758999        1.8001039720        0.6242585792
 C          9.6083479864        1.1312266452       -0.1643928259
 F         10.8291622084        1.6762904001       -0.3582584053
 C          9.3102726355       -0.0803911616       -0.7605433227
 C          8.0604895425       -0.6326060426       -0.5552708541
 C          4.6402723556        0.2283382890        0.4195492786
 C          3.4051632521       -0.3482292334        0.6048442959
 C         -0.2513490390        2.2002876640        0.3239440853
 C         -1.6307976182        2.5381206010        0.1422693125
 O         -2.3194686528        2.7948521019        1.2981243763
 C         -3.6846612197        2.7178751712        1.2356648680
 C         -4.3641108511        2.8483223064        2.4328887271
 C         -5.7493005543        2.7624910615        2.4660058536
 C         -6.4337512967        2.5327912984        1.2927543714
 C         -5.7517565936        2.3967884922        0.0883957928
 C         -4.3658178640        2.4952710148        0.0260661949
 H         -3.5555305670       -4.2772455526       -4.0010641780
 H         -2.1038910349       -4.7595953914       -3.1218593037
 H         -3.6145728761       -4.4815317256       -2.2514796009
 H         -2.0291020717       -2.5600657435       -1.9824830210
 H         -2.0051493106       -2.3493979709       -3.7323242124
 H         -4.4575202251       -1.8945100955       -3.7038759535
 H         -4.4683329116       -2.0977267810       -1.9511261060
 H         -2.8750310050       -0.0044206709       -3.4847258215
 H         -2.8516395217       -0.2133533536       -1.7324150803
 H         -5.3332854008        0.4589552707       -3.3820074707
 H         -5.2731671456        0.2857642625       -1.6256874925
 H         -5.2538478503        2.6819657091       -2.4341881464
 H         -3.7275365693        2.3788226369       -3.2365998052
 H         -1.8257673425        2.0901330673       -3.1972218500
 H          0.4640512568        1.4969730311       -2.8542570990
 H          0.4696882055        3.1843748987       -2.3713891319
 H          2.3398754148        0.9240090842       -1.4854165376
 H          1.9680502896        0.9614283350        1.4997089404
 H         -0.8094994037       -0.0086812493        0.6423776183
 H         -2.5683137844       -4.1098345060        0.2300832805
 H         -5.0359680673       -4.0808146162        0.1821186681
 H         -5.0324684556       -0.1112023352        1.7451956244
 H         -2.5770599820       -0.1512237712        1.8566170734
 H         -0.6672187608       -4.2140110016        1.4108984288
 H          1.7822938205       -4.1727244835        1.2945139651
 H          4.3293755686       -3.5950851998        1.0325926353
 H          6.5391389686       -2.5607381775        0.7083040401
 H          6.7233771605        1.7421729538        1.4422854625
 H          8.9579631325        2.7415908574        1.0775721939
 H         10.0486714712       -0.5724435346       -1.3739067949
 H          7.8101050554       -1.5697062952       -1.0293629439
 H          4.7274277069        1.2886002151        0.2313318115
 H          0.0886887601        2.1381600507        1.3453519340
 H         -3.7890032226        3.0160181297        3.3296578027
 H         -6.2737497079        2.8681835771        3.4024127247
 H         -7.5098400514        2.4509917522        1.2948988430
 H         -6.3334812385        2.2122437602       -0.7983168940
