  62
 
 O         -0.1555995498       -4.0057195753        1.3481524511
 C         -0.9086174279       -3.2597794146        0.6807439022
 C         -2.1752932703       -3.6809199934        0.1853766187
 C         -2.9830191992       -3.0529685015       -0.7998882218
 N         -4.1225299929       -3.5322839523       -1.2086436676
 C         -4.5613293938       -4.6818880997       -0.7011955001
 N         -3.8420945944       -5.3803462945        0.1734046334
 C         -2.7041356993       -4.9424280780        0.5991904393
 C         -0.4558408328       -1.8781060251        0.3783061046
 C         -1.3189461233       -0.7823751534        0.3967615424
 C         -0.8191726108        0.4974017068        0.1778176146
 N         -1.6787708600        1.6011579181        0.2496051703
 C         -2.8789878373        1.7450292497       -0.4175631176
 C         -3.4698537198        0.9186928647       -1.3620267561
 C         -4.6793202339        1.3132081066       -1.9017561368
 C         -5.2861963514        2.5080943598       -1.5237235238
 C         -4.6887827328        3.3503044838       -0.6046045707
 C         -3.4759367921        2.9722467613       -0.0473781815
 C         -2.5862994516        3.5893006855        0.8990018729
 C         -2.6306252880        4.7759347795        1.6161619181
 C         -1.5926879339        5.0643732830        2.4822522639
 C         -0.5302842858        4.1796141098        2.6476118959
 C         -0.4641719892        2.9915697908        1.9438614737
 C         -1.4911036843        2.7086189828        1.0545508233
 C          0.5402340907        0.6984085330       -0.0414425593
 C          1.4054578226       -0.3927270211       -0.0279331336
 N          2.7757384576       -0.2057534444       -0.2331146295
 C          3.3514074820        0.5276716517       -1.2515150783
 C          2.7512202598        1.2026852942       -2.3053522495
 C          3.5737659806        1.8487241278       -3.2095568148
 C          4.9596564548        1.8200286771       -3.0803908511
 C          5.5640192835        1.1273758748       -2.0474167625
 C          4.7593101405        0.4712531204       -1.1282322884
 C          5.0361810065       -0.3413382743        0.0260754057
 C          6.2080197925       -0.7405073572        0.6515660596
 C          6.1168112910       -1.5280577368        1.7844222250
 C          4.8786385364       -1.9028004802        2.2996046906
 C          3.6970685587       -1.5152530831        1.6953646168
 C          3.7840415707       -0.7447826341        0.5439092448
 C          0.9078566353       -1.6727073503        0.1752905910
 H         -2.6453212891       -2.1475476106       -1.2879890801
 H         -5.5129211737       -5.0665863824       -1.0230500577
 H         -2.1249734608       -5.5398872400        1.2917507139
 H         -2.3611991453       -0.9022707314        0.6501655899
 H         -2.9981538523        0.0014717331       -1.6779768361
 H         -5.1608640579        0.6812556608       -2.6324914625
 H         -6.2329184322        2.7815633539       -1.9645202411
 H         -5.1509819683        4.2850323063       -0.3260046918
 H         -3.4618144979        5.4546007147        1.5002938412
 H         -1.6067978099        5.9836950760        3.0480512641
 H          0.2580065110        4.4241142925        3.3437431207
 H          0.3535475759        2.3034838966        2.0951564030
 H          0.9217730353        1.6955340039       -0.1954841697
 H          1.6789892358        1.2131044274       -2.4284271921
 H          3.1306920160        2.3832377418       -4.0364997236
 H          5.5682509266        2.3387459779       -3.8056815240
 H          6.6389724125        1.0916970991       -1.9577182818
 H          7.1677690450       -0.4380797750        0.2611236751
 H          7.0169744669       -1.8529503641        2.2841536136
 H          4.8384978357       -2.5083877269        3.1922813936
 H          2.7439569575       -1.8025315424        2.1112044003
 H          1.5681854332       -2.5254748251        0.1589969763
