  72
 
 C          3.5222112404        3.2764950069       -1.0730174177
 C          2.3088339204        2.4919280508       -0.6791280059
 C          2.0783607759        2.1609677254        0.6455851676
 C          0.9822814923        1.4002480563        1.0226228188
 C          0.7617029038        1.1817982581        2.4923826256
 C          0.0707448636        0.9354891749        0.0609331987
 B         -1.0720082623       -0.0805290712        0.4085992004
 C         -0.7220277028       -1.4019866516        1.1930740653
 C         -1.7017542251       -1.9395212294        2.0398529924
 C         -1.4663106403       -3.0328475292        2.8502734962
 C         -0.2265013252       -3.6503098534        2.8294952764
 C          0.7617322912       -3.1599225781        1.9970171971
 C          0.5281329900       -2.0493195375        1.1925038112
 N          1.6045412657       -1.5901628564        0.4059501908
 C          2.7891435055       -1.1053064158        0.9183366991
 C          3.2112688650       -1.0194865138        2.2370331875
 C          4.4511363908       -0.4617337953        2.4829815522
 C          5.2591493146        0.0008797175        1.4465254266
 C          4.8492449772       -0.0925083985        0.1317510679
 C          3.6083587043       -0.6516395661       -0.1406913980
 C          2.8882712355       -0.9175438685       -1.3519367381
 C          3.1810173376       -0.7425881946       -2.6971374671
 C          2.2705563171       -1.1844282193       -3.6358567483
 C          1.0910700787       -1.8147006810       -3.2470936885
 C          0.7727010563       -1.9882880131       -1.9139655626
 C          1.6632745192       -1.5091071760       -0.9663306558
 C         -2.5793120062        0.2169303430        0.0712022104
 C         -3.1653903194        1.4254729940        0.4987138213
 C         -2.3775526435        2.4247932575        1.2943219526
 C         -4.4944694290        1.7021759619        0.2310892432
 C         -5.2965767964        0.8158972107       -0.4749278226
 C         -6.7272354252        1.1503524338       -0.7673180446
 C         -4.7279491578       -0.3724914015       -0.8952563426
 C         -3.4006378297       -0.6828753944       -0.6277110555
 C         -2.8827651842       -1.9839388384       -1.1697393904
 C          0.2563971684        1.3544904256       -1.2690299552
 C         -0.7437044668        1.0060755616       -2.3325164068
 C          1.3665728937        2.1035883278       -1.6196969510
 H          3.7678892955        3.1081056836       -2.1188916225
 H          4.3735855638        2.9937539548       -0.4574687621
 H          3.3441309299        4.3436194248       -0.9332287011
 H          2.7766534814        2.4874839149        1.4040251489
 H          1.7084540422        1.0033802175        2.9974532805
 H          0.3211843849        2.0809684023        2.9266842471
 H          0.0900681688        0.3500958534        2.6845067736
 H         -2.6725786524       -1.4648839679        2.0623627621
 H         -2.2483583745       -3.4062786438        3.4947662025
 H         -0.0316301775       -4.5106537272        3.4525263046
 H          1.7317813521       -3.6350090018        1.9603784528
 H          2.5916299216       -1.3775372819        3.0460231549
 H          4.8029316438       -0.3828579154        3.5017143708
 H          6.2211729037        0.4328663306        1.6809875993
 H          5.4777689285        0.2595076434       -0.6725303802
 H          4.1090409051       -0.2802718671       -2.9984942055
 H          2.4796165598       -1.0598949955       -4.6882462093
 H          0.4128447560       -2.1792908382       -4.0052928198
 H         -0.1313256147       -2.4960415072       -1.6174007900
 H         -2.0341558645        1.9809281175        2.2267274931
 H         -2.9886353938        3.2931996300        1.5305991650
 H         -1.5024538456        2.7545238119        0.7390499240
 H         -4.9218970269        2.6331391112        0.5785411742
 H         -7.2373649044        0.3098800465       -1.2315736433
 H         -6.7836273634        2.0045934771       -1.4420287271
 H         -7.2523565248        1.4164772936        0.1490474728
 H         -5.3306694182       -1.0828101394       -1.4450886911
 H         -3.6863850005       -2.7153115198       -1.2326068001
 H         -2.4896693845       -1.8375226718       -2.1770809447
 H         -2.0918970210       -2.3882367532       -0.5459252111
 H         -1.6776944253        1.5388063749       -2.1550974507
 H         -0.3681180951        1.2835179133       -3.3147939989
 H         -0.9597844252       -0.0575677107       -2.3336789427
 H          1.5073419820        2.3829716172       -2.6548581772
