  99
 
 C         -1.5617892178        1.2630853406        3.5072868993
 C         -0.6733006938        2.2986967454        3.7538096384
 C          0.3020311695        2.6102624045        2.8254732736
 C          0.4227094386        1.8835764280        1.6425388727
 N          1.4305644955        2.2398235529        0.7366325729
 C          2.7721497411        2.3642835976        1.0546372559
 C          3.4129214156        2.2096310532        2.2753093373
 C          4.7778089826        2.4200409965        2.3202330316
 C          5.5010331128        2.7570971619        1.1783526566
 C          4.8757370059        2.8739793755       -0.0466215814
 C          3.5021059444        2.6781683456       -0.1135657632
 C          2.5492538226        2.7427767919       -1.1860495031
 C          2.6576909805        3.0147639675       -2.5434231964
 C          1.5090812315        3.0338278697       -3.3091030970
 C          0.2617031307        2.8118069498       -2.7295871720
 C          0.1293724666        2.5423204712       -1.3810257251
 C          1.2840760279        2.4760007490       -0.6144418595
 C         -0.4796366018        0.8399181731        1.3898688603
 C         -0.4490960345        0.0453923549        0.1595921237
 N         -1.6185905384       -0.4156440241       -0.2735562982
 C         -1.6139816422       -0.9773602831       -1.4731197815
 C         -2.8600691582       -1.5381805265       -2.0047374662
 C         -2.7757770289       -2.4416617384       -3.0657070442
 C         -3.8957033231       -3.0916012462       -3.5438123921
 C         -5.1317342425       -2.8513543893       -2.9618054634
 C         -5.2406169587       -1.9396405501       -1.9285638769
 C         -4.1196996869       -1.2675947694       -1.4481461710
 N         -4.3004733407       -0.3162420589       -0.4342360623
 C         -3.9961953021        1.0242002656       -0.5203970955
 C         -3.5123052219        1.7480756852       -1.5997935487
 C         -3.3398770137        3.1102603669       -1.4375742240
 C         -3.6376500463        3.7418150178       -0.2314021931
 C         -4.1359040381        3.0279113102        0.8405679126
 C         -4.3269419156        1.6598380417        0.6986230931
 C         -4.8478954084        0.6365510684        1.5619430990
 C         -5.3264680511        0.6334050642        2.8660371922
 C         -5.7528047934       -0.5616551496        3.4119814922
 C         -5.6987996203       -1.7457339685        2.6787788251
 C         -5.2290973947       -1.7679586986        1.3787574077
 C         -4.8150693939       -0.5670874637        0.8206551368
 N         -0.5200877736       -1.1095883447       -2.2255000408
 C          0.6175141875       -0.7744333091       -1.6306563450
 C          1.8646943307       -1.0314777096       -2.3640336191
 C          1.9425260083       -0.6888702157       -3.7083772885
 C          3.1238190023       -0.8507575332       -4.4083273500
 C          4.2350900520       -1.3786050490       -3.7697394981
 C          4.1599520083       -1.7608157896       -2.4424724669
 C          2.9793126171       -1.5894924130       -1.7265353798
 N          2.8964844500       -2.0174795478       -0.3950725395
 C          3.7355017717       -1.6362691820        0.6363185270
 C          4.8810278267       -0.8555180114        0.6035096016
 C          5.5568900807       -0.6520833611        1.7913377509
 C          5.0980273861       -1.1890033489        2.9918755862
 C          3.9391323418       -1.9376846179        3.0369003190
 C          3.2502809277       -2.1678477170        1.8526470251
 C          2.0567473611       -2.9008584398        1.5329001218
 C          1.1534456682       -3.6370028572        2.2887927379
 C          0.1062383885       -4.2658635710        1.6442863645
 C         -0.0275851399       -4.1941983414        0.2591661259
 C          0.8599435268       -3.4691328776       -0.5137595324
 C          1.8830869090       -2.7903942784        0.1342109047
 N          0.7068073863       -0.1878886971       -0.4458540549
 C         -1.4697215788        0.5529925265        2.3275937026
 H         -2.3283944067        1.0160680066        4.2247334290
 H         -0.7463296739        2.8731346538        4.6648322767
 H          0.9755356021        3.4360528249        3.0002240422
 H          2.8680858856        1.9283796190        3.1632804726
 H          5.2938954915        2.3201470717        3.2631840971
 H          6.5656971749        2.9204930792        1.2548704935
 H          5.4361543380        3.1178209286       -0.9367176075
 H          3.6219797484        3.2091134125       -2.9879135637
 H          1.5703747516        3.2351505776       -4.3683735033
 H         -0.6243618907        2.8521895371       -3.3473122493
 H         -0.8468881840        2.3838858705       -0.9431393709
 H         -1.8021909966       -2.6291277175       -3.4926385341
 H         -3.8059734921       -3.7897563577       -4.3617546522
 H         -6.0115448061       -3.3625666833       -3.3216441397
 H         -6.2027301789       -1.7246322809       -1.4869338850
 H         -3.2761054978        1.2623606819       -2.5370734941
 H         -2.9655398479        3.7000284958       -2.2619855607
 H         -3.4807543184        4.8066949626       -0.1438212073
 H         -4.3780209638        3.5219278307        1.7692696869
 H         -5.3600060645        1.5488030046        3.4371685394
 H         -6.1308477831       -0.5851004124        4.4232654617
 H         -6.0298706934       -2.6665836073        3.1360352769
 H         -5.1813599930       -2.6897322733        0.8177997330
 H          1.0675790365       -0.2734864748       -4.1856947314
 H          3.1771342171       -0.5672781573       -5.4480833239
 H          5.1590164623       -1.5111845556       -4.3118102036
 H          5.0106459511       -2.2117076073       -1.9540151321
 H          5.2333644077       -0.4140023005       -0.3155384464
 H          6.4612509144       -0.0635716963        1.7865610320
 H          5.6563581385       -1.0105544319        3.8986264285
 H          3.5740519401       -2.3433521224        3.9684881402
 H          1.2726390768       -3.7177102791        3.3586992522
 H         -0.6117426040       -4.8368169798        2.2141502595
 H         -0.8390461540       -4.7206992295       -0.2233665161
 H          0.7578007894       -3.4380234915       -1.5893918579
 H         -2.1577474140       -0.2498884951        2.1123995396
