  79
 
 C         -6.5539103992        0.0265171260        3.6371374275
 C         -5.7170331024       -0.2713758112        2.4278814125
 C         -5.4003731625       -1.6000708906        2.1222488694
 C         -4.6415526669       -1.9429575794        1.0208789237
 C         -4.1967244320       -0.9193061352        0.1973906062
 C         -4.4884865775        0.4292619253        0.4957850540
 C         -5.2512482253        0.7458382243        1.6132667783
 C         -3.8529221056        1.2199101392       -0.5224653719
 C         -3.7869608013        2.5860078725       -0.7703939562
 C         -3.0794828399        3.0450650843       -1.8677846353
 C         -2.9609769112        4.5127418119       -2.1545250755
 C         -2.4600816957        2.1262209945       -2.7229383085
 C         -2.5149391625        0.7640180592       -2.5049276415
 C         -3.1996024804        0.3128286561       -1.3855984909
 N         -3.4106142889       -0.9780596904       -0.9391257417
 C         -2.9250628969       -2.1456472715       -1.5394538926
 C         -3.8215322707       -3.1423951694       -1.9158845226
 C         -3.3776602303       -4.2863312996       -2.5514129852
 C         -2.0291007937       -4.4450977441       -2.8393956062
 C         -1.1266178148       -3.4709462477       -2.4639817057
 C         -1.5564176124       -2.3238337204       -1.7943539505
 C         -0.5521209040       -1.3752398515       -1.3615569398
 N          0.6576609605       -1.2830324441       -1.8349499965
 N          1.2816074734       -0.3153655531       -1.1464781230
 C          0.4340062739        0.1433697313       -0.2738586205
 C          0.6128605597        1.2320959551        0.6635093901
 C         -0.5029031327        1.9706632753        1.0558729559
 C         -0.3618408672        3.0753832268        1.8719988386
 C          0.8992249694        3.4527338053        2.3098482608
 C          2.0096737307        2.7084371559        1.9577397844
 C          1.8845599694        1.5863976354        1.1421088189
 N          3.0088521745        0.8135835506        0.8505805208
 C          4.1963131536        1.2783218443        0.3139106798
 C          4.5506816775        2.5593566427       -0.0818643276
 C          5.8130830174        2.7465810689       -0.6097856623
 C          6.7232885714        1.6947518811       -0.7601843306
 C          8.0797350695        1.9711321649       -1.3398996755
 C          6.3540582165        0.4148801287       -0.3837627773
 C          5.0906402347        0.1987779411        0.1516749455
 C          4.4042149280       -0.9744196845        0.6185015041
 C          4.7662011147       -2.3109325247        0.7257347907
 C          3.8649845637       -3.2206169158        1.2508932853
 C          4.2108006729       -4.6766355252        1.3647310773
 C          2.6128801689       -2.7748671318        1.6875707274
 C          2.2310548451       -1.4509991037        1.5975068687
 C          3.1239323814       -0.5512697410        1.0346181113
 O         -0.7576974898       -0.4901613326       -0.3619689897
 H         -7.5445792702       -0.4148636534        3.5295553516
 H         -6.6665564109        1.0984637761        3.7779282093
 H         -6.0970416681       -0.3967605484        4.5310604706
 H         -5.7611123114       -2.3822107485        2.7750342361
 H         -4.3983479474       -2.9746663296        0.8138801943
 H         -5.4749828047        1.7777456842        1.8410769785
 H         -4.2834019260        3.2800843078       -0.1081440672
 H         -1.9248904230        4.8342887473       -2.0455824306
 H         -3.2704561148        4.7283586407       -3.1762795390
 H         -3.5770034753        5.0933295977       -1.4727733146
 H         -1.9210455303        2.4974101051       -3.5831682695
 H         -2.0332819960        0.0755453618       -3.1857772801
 H         -4.8731037629       -2.9966200709       -1.7182613680
 H         -4.0867186760       -5.0483176357       -2.8370756702
 H         -1.6835713385       -5.3300401984       -3.3504888519
 H         -0.0714626665       -3.5748556742       -2.6629041276
 H         -1.4765655701        1.6813880289        0.6895356403
 H         -1.2322012474        3.6434581223        2.1606270719
 H          1.0156708790        4.3192074509        2.9429927354
 H          2.9879101222        2.9758511736        2.3282957237
 H          3.8607002899        3.3851405777        0.0071871645
 H          6.1104286205        3.7379216318       -0.9214111510
 H          8.6831246914        1.0673768815       -1.3640617611
 H          8.6009731328        2.7228163557       -0.7480188390
 H          7.9867417197        2.3534904993       -2.3561964299
 H          7.0379320899       -0.4120373808       -0.5074277509
 H          5.7447846178       -2.6344268053        0.4024455600
 H          4.0749711849       -5.0231681457        2.3885476287
 H          5.2416560163       -4.8539093324        1.0695465317
 H          3.5599440939       -5.2701934520        0.7225886461
 H          1.9243693953       -3.4924668856        2.1125768878
 H          1.2626664228       -1.1326546148        1.9598555155
