  89
 
 C          9.9321276795       -1.9725492791       -1.9722416369
 C          9.8166511694       -0.6756561898       -1.4938898417
 C          8.6079565969       -0.2126120717       -1.0232993247
 C          7.4706022960       -1.0353956612       -1.0169256722
 C          6.2252369336       -0.5034939246       -0.5071745990
 C          5.0126576940       -1.1703710265       -0.5367527601
 C          3.8857909459       -0.5470068996        0.0232234664
 C          2.5790069913       -1.1252268817        0.0883139837
 C          1.5827047797       -0.4872857439        0.8586684342
 C          0.3218244680       -1.0115270971        0.9742828359
 C         -0.0152559637       -2.1926446340        0.3051219999
 N         -1.3027790527       -2.7334983078        0.4222539718
 C         -1.6012141152       -4.0473570647        0.7242157825
 C         -0.7490956102       -5.1087517650        0.9955743787
 C         -1.3177327170       -6.3337221785        1.2910455950
 C         -2.6993941886       -6.5038984013        1.3278542657
 C         -3.5533563249       -5.4435559063        1.0876117366
 C         -3.0058419751       -4.2046280746        0.7891468915
 C         -3.5744317668       -2.9119080636        0.5213492547
 C         -4.8806178388       -2.4497974991        0.4642331668
 C         -5.0691474687       -1.1075181787        0.1801179479
 C         -3.9710460825       -0.2546942648       -0.0711256240
 C         -2.6707984997       -0.6937612302       -0.0294761925
 C         -2.4791962935       -2.0353677940        0.2977347335
 C         -4.4477382730        1.1491567693       -0.3541622464
 C         -3.8510433949        2.1632093932        0.5926082710
 C         -3.9301387317        2.1974971282        1.9673508487
 C         -3.2831501842        3.2252606581        2.6406444146
 C         -2.5727159243        4.1925351098        1.9457633116
 C         -2.4914763973        4.1605912940        0.5627012755
 C         -3.1356261301        3.1391903994       -0.1157751457
 C         -3.2326936431        2.8413561879       -1.5362418117
 C         -2.7197617828        3.4951160033       -2.6443009668
 C         -2.9847802205        2.9765429832       -3.9017250893
 C         -3.7459291540        1.8272339599       -4.0527185447
 C         -4.2620317824        1.1654565161       -2.9464623136
 C         -4.0009254918        1.6790414313       -1.6954198052
 C         -5.9436395465        1.0017990051       -0.2317656132
 C         -6.9122979760        1.9684593486       -0.3839897266
 C         -8.2426156422        1.6020422989       -0.2261519649
 C         -8.5877830097        0.2928124287        0.0769454950
 C         -7.6164292303       -0.6822094344        0.2306883547
 C         -6.2856638021       -0.3246636913        0.0753976484
 C          0.9511695446       -2.8269639344       -0.4799769092
 C          2.2196135479       -2.3107750393       -0.5821963729
 N          4.0468988894        0.7001943975        0.5579448374
 C          5.1963923287        1.3231412273        0.5491083209
 C          5.2946591103        2.6705699598        1.1069389161
 C          6.5348269227        3.2933348377        1.2241082255
 C          6.6238530316        4.5694073935        1.7457531398
 C          5.4784077006        5.2351864552        2.1528650152
 C          4.2411106845        4.6206510255        2.0379573909
 C          4.1470217674        3.3444173760        1.5183292586
 N          6.2690848883        0.7487836553        0.0426317357
 C          7.6042364985       -2.3431975553       -1.5017080896
 C          8.8181418527       -2.7989945513       -1.9711198099
 H         10.8795361664       -2.3368530109       -2.3403305381
 H         10.6788629494       -0.0240351045       -1.4896222848
 H          8.5126135402        0.7971217050       -0.6533430344
 H          4.9322343208       -2.1537771164       -0.9666404147
 H          1.8465673106        0.4189203011        1.3819524305
 H         -0.4123327460       -0.5299279359        1.6037478258
 H          0.3223474764       -4.9810992129        0.9904593020
 H         -0.6759936612       -7.1760432887        1.5024024700
 H         -3.1055710323       -7.4772544076        1.5588733648
 H         -4.6240826418       -5.5725091810        1.1350036139
 H         -5.7140616075       -3.1125728716        0.6386631923
 H         -1.8444174825       -0.0339962290       -0.2445136376
 H         -4.4828254343        1.4425112692        2.5077605091
 H         -3.3332552540        3.2712011136        3.7186417086
 H         -2.0763823528        4.9818950917        2.4914950161
 H         -1.9366711331        4.9159828792        0.0262234202
 H         -2.1268641342        4.3907141576       -2.5321199119
 H         -2.5940054107        3.4742812767       -4.7773230662
 H         -3.9402868272        1.4422981658       -5.0429752072
 H         -4.8556498652        0.2702977128       -3.0631695496
 H         -6.6425722593        2.9875300062       -0.6203654469
 H         -9.0178353197        2.3451932472       -0.3407821178
 H         -9.6294659274        0.0317714371        0.1947892822
 H         -7.8903421362       -1.6996541195        0.4671001211
 H          0.6834885513       -3.7180282084       -1.0290404587
 H          2.9361171495       -2.8176760696       -1.2093271960
 H          7.4178059677        2.7611307614        0.9046656369
 H          7.5873847157        5.0490962860        1.8362320912
 H          5.5498679077        6.2334507799        2.5592166315
 H          3.3489332002        5.1411015936        2.3541662457
 H          3.1904177443        2.8544137003        1.4179471333
 H          6.7587841307       -3.0138638792       -1.5052849593
 H          8.9006942164       -3.8119131691       -2.3390268037
