  141
 
 C          7.5286452564       -3.0572100193        1.7628200788
 C          7.0998372273       -1.8735418801        2.6434956346
 C          8.2630218258       -0.8786583030        2.7029590129
 C          6.8160629366       -2.3627352673        4.0718898114
 C          5.8348280588       -1.2611252779        2.0622455532
 C          4.6923978349       -2.0618702080        1.9289553465
 C          3.5143207117       -1.5975931057        1.3805924057
 C          3.4772928464       -0.2859721463        0.9322222905
 C          4.5901854606        0.5622945779        1.1178156769
 C          5.7620461723        0.0704710985        1.6689673493
 C          4.1906790052        1.8617762151        0.6428636504
 C          4.8433920979        3.0803146836        0.5560732959
 C          4.1869695111        4.1790163952        0.0133878995
 C          4.8402254571        5.5474886010       -0.1028415048
 C          4.9176404543        5.9426812097       -1.5856678838
 C          3.9945825100        6.5742118198        0.6661726322
 C          6.2593240432        5.5747514790        0.4729231613
 C          2.8754707843        4.0120532183       -0.4529196232
 C          2.2053300951        2.8087544999       -0.3831195742
 C          2.8607769003        1.7269267117        0.1864184182
 N          2.4478183049        0.4213694187        0.3459041409
 C          1.2418127867       -0.1187559575       -0.1086405466
 C          1.2249312870       -1.2314410342       -0.9346050080
 N          2.4238659379       -1.7686881684       -1.4263391289
 C          2.8390818835       -3.0759354989       -1.2730067309
 C          2.1749274981       -4.1512838416       -0.7001637600
 C          2.8336197675       -5.3648992063       -0.6435092979
 C          4.1284567516       -5.5093268489       -1.1364826204
 C          4.8023103823       -4.4378737053       -1.6928646598
 C          4.1597820013       -3.2100576036       -1.7612733749
 C          4.5473290615       -1.9139374039       -2.2474806129
 C          5.6973731355       -1.4206398271       -2.8462850723
 C          5.7218315439       -0.0962573709       -3.2429352666
 C          4.6072698938        0.7222069222       -3.0786759319
 C          3.4519358569        0.2527713168       -2.4828604034
 C          3.4411717131       -1.0595859840       -2.0331955076
 C          0.0077751051       -1.8171913589       -1.3357291905
 C         -1.2104778200       -1.2321998264       -0.9375582393
 N         -2.4077174827       -1.7708163410       -1.4322109647
 C         -3.4256170493       -1.0631904744       -2.0397832778
 C         -3.4389294482        0.2498127573       -2.4875891286
 C         -4.5951608473        0.7178174434       -3.0827464474
 C         -5.7079360923       -0.1026620770       -3.2490155176
 C         -5.6805916009       -1.4277246968       -2.8549763167
 C         -4.5298404489       -1.9195020264       -2.2562162415
 C         -4.1404115404       -3.2152956175       -1.7707245337
 C         -4.7807223076       -4.4443994615       -1.7042404103
 C         -4.1059052777       -5.5148838257       -1.1472205147
 C         -2.8122879394       -5.3682228679       -0.6517190262
 C         -2.1557757692       -4.1533494105       -0.7065899062
 C         -2.8207915223       -3.0789806856       -1.2802545575
 C         -1.2300702468       -0.1194264369       -0.1115333017
 N         -2.4371989737        0.4209337621        0.3393669354
 C         -3.4704177996       -0.2865211674        0.9184284256
 C         -3.5094716184       -1.5983603463        1.3665850178
 C         -4.6900953549       -2.0630813726        1.9086044638
 C         -5.8338096869       -1.2629163525        2.0357007208
 C         -7.1007762239       -1.8754396595        2.6123824974
 C         -7.5254494752       -3.0605160378        1.7316325874
 C         -6.8221395822       -2.3626522782        4.0425137174
 C         -8.2648458644       -0.8812634044        2.6661877845
 C         -5.7596632772        0.0684798152        1.6419154632
 C         -4.5851905491        0.5608211224        1.0973934368
 C         -4.1828284888        1.8613267875        0.6265774889
 C         -4.8280828776        3.0798721741        0.5353772900
 C         -4.1646878810        4.1847676355        0.0034077124
 C         -4.8930442439        5.5182130675       -0.0689927816
 C         -5.3165651562        5.9308569300        1.3492776156
 C         -6.1366976657        5.3625882147       -0.9579246109
 C         -4.0276783336        6.6400849245       -0.6507271000
 C         -2.8531049578        4.0201234064       -0.4509854796
 C         -2.1887115019        2.8098482023       -0.3800950353
 C         -2.8482511643        1.7275602868        0.1793557602
 C          0.0053868080        0.4701118203        0.3436401261
 C          0.0044776354        1.4279628382        1.3313918430
 N          0.0041307522        2.2522243269        2.1554648500
 H          8.4529885878       -3.4879744884        2.1417698302
 H          7.6946884139       -2.7223649945        0.7408281018
 H          6.7712919483       -3.8357948548        1.7472361331
 H          9.1424325758       -1.3752591338        3.1080237481
 H          8.0262568833       -0.0373579424        3.3502504402
 H          8.5123308849       -0.5093614409        1.7108469073
 H          6.4824993112       -1.5343327823        4.6939361081
 H          7.7203840728       -2.7809261669        4.5086749688
 H          6.0460769903       -3.1290608894        4.0841489070
 H          4.7190556792       -3.0863707392        2.2657787275
 H          2.6472188976       -2.2375968678        1.3179550964
 H          6.5992381013        0.7374598344        1.7851653248
 H          5.8572975958        3.1508742898        0.9115654266
 H          5.3910729656        6.9168618202       -1.6869988005
 H          5.5058569133        5.2129415431       -2.1386042672
 H          3.9296641951        5.9956917831       -2.0344660086
 H          2.9931323363        6.6566493416        0.2533497348
 H          4.4642999849        7.5543596833        0.6188919505
 H          3.9067859341        6.2816607097        1.7107481895
 H          6.9134943392        4.8911684312       -0.0632281111
 H          6.6692272740        6.5778333347        0.3744029590
 H          6.2568403122        5.3152664949        1.5290863152
 H          2.3568234605        4.8512621965       -0.8897151276
 H          1.1974443434        2.7194740672       -0.7589361777
 H          1.1775571323       -4.0411920695       -0.3032241010
 H          2.3349978851       -6.2168336932       -0.2050826573
 H          4.6115961722       -6.4732027976       -1.0759490964
 H          5.8104953204       -4.5493002758       -2.0618747466
 H          6.5508802764       -2.0622969202       -3.0045895221
 H          6.6097473604        0.3080771647       -3.7056761888
 H          4.6416278560        1.7439131925       -3.4263803284
 H          2.5838425645        0.8865592243       -2.3842443984
 H          0.0089304569       -2.6215756595       -2.0506341494
 H         -2.5721604559        0.8852650868       -2.3875860831
 H         -4.6320480376        1.7402066246       -3.4281546117
 H         -6.5965760376        0.3008897301       -3.7109770594
 H         -6.5325428653       -2.0710625192       -3.0148383601
 H         -5.7880239982       -4.5574959770       -2.0751522053
 H         -4.5873234873       -6.4797115465       -1.0880946335
 H         -2.3128718528       -6.2193799625       -0.2126802515
 H         -1.1594040254       -4.0415927045       -0.3076277468
 H         -2.6415800948       -2.2377297923        1.3090214065
 H         -4.7179725012       -3.0873921780        2.2458540219
 H         -7.6888014192       -2.7269648291        0.7087976800
 H         -6.7671942590       -3.8382647326        1.7192528885
 H         -8.4504437349       -3.4918905101        2.1082673383
 H         -7.7280988329       -2.7800480697        4.4766346032
 H         -6.4906125486       -1.5334628702        4.6646042072
 H         -6.0523783844       -3.1291166538        4.0585951182
 H         -9.1455503434       -1.3780792135        3.0681473238
 H         -8.5104155948       -0.5130880785        1.6727070431
 H         -8.0312729199       -0.0392468771        3.3137490713
 H         -6.5979743526        0.7348799549        1.7534561334
 H         -5.8473516722        3.1594259889        0.8787046377
 H         -6.0036844898        5.2112525819        1.7851944410
 H         -4.4437148744        6.0025831166        1.9953832833
 H         -5.8094257809        6.9003499484        1.3239763560
 H         -5.8460878305        5.0586185790       -1.9615537697
 H         -6.6674734046        6.3098545568       -1.0238871161
 H         -6.8181941969        4.6161448519       -0.5599819593
 H         -3.1376885721        6.8005622382       -0.0463530236
 H         -4.5981822642        7.5666223136       -0.6612043734
 H         -3.7311800261        6.4182859157       -1.6734648257
 H         -2.3218559955        4.8540917317       -0.8779350724
 H         -1.1780381177        2.7207626441       -0.7483184565
