  90
 
 C         -5.0122424541       -0.0173410044        2.1379826360
 C         -5.1656559026       -0.3885435620        0.6597616367
 C         -6.1347331540        0.5707698613       -0.0373711064
 C         -5.6064729032       -1.8271069940        0.5027657148
 C         -6.7690864956       -2.4258277656        0.9354654028
 C         -6.9639777929       -3.7765746828        0.6767560681
 C         -6.0064993952       -4.5131610808       -0.0026826315
 C         -4.8339047168       -3.9192340424       -0.4404714843
 C         -4.6370533654       -2.5718266936       -0.1862176614
 C         -3.5319522934       -1.6919033221       -0.5206033290
 C         -2.3435567316       -1.9259953361       -1.1926135349
 C         -1.4586505958       -0.8815005188       -1.3799885152
 C         -1.7393455603        0.3967688110       -0.8922125801
 N         -0.8268308320        1.4380655147       -1.0455618274
 C         -1.2848063674        2.7480364408       -1.2644031667
 C         -2.4099926840        2.9853855193       -2.0514738412
 C         -2.8306500660        4.2759764236       -2.3062842343
 C         -2.1198148580        5.3512619174       -1.7985808921
 C         -0.9997844937        5.1241035728       -1.0195140039
 C         -0.5774888702        3.8332409272       -0.7271521882
 C          0.5783670680        3.6332854175        0.1674652132
 C          0.4350370897        2.8998980824        1.3406056215
 C          1.4976326750        2.7544705782        2.2117809823
 C          2.7160032027        3.3458253058        1.9229209903
 C          2.8710737837        4.0690323792        0.7519613076
 C          1.8079763012        4.2161616684       -0.1192581618
 C          0.5281641755        1.1705095448       -1.2951391217
 C          1.1459550770        1.7915720568       -2.3836429642
 C          2.4632070565        1.5434558455       -2.7136417867
 C          3.2100832580        0.6310990896       -1.9828355097
 C          2.6128206714        0.0217497490       -0.9025274033
 C          1.2914142569        0.2954234563       -0.5156546987
 C          1.0195657140       -0.4371203178        0.7172150533
 C         -0.0751192374       -0.4721860590        1.5686192289
 C         -0.0145299200       -1.2501428587        2.7136070706
 C          1.1168186623       -1.9870169328        3.0236366542
 C          2.2226423690       -1.9543798578        2.1863537475
 C          2.1643918030       -1.1789172149        1.0501800184
 C          3.2388966522       -0.9990380258        0.0113155496
 C          4.5870254030       -0.6053587343        0.5545795555
 C          4.9133099091        0.5107453059        1.2919148075
 C          6.2332579595        0.6771324600        1.6888147122
 C          7.2000842009       -0.2579159538        1.3504757060
 C          6.8753900919       -1.3800412576        0.6048434972
 C          5.5606333341       -1.5520423686        0.2043700792
 C          4.9227846235       -2.6004901826       -0.5763194556
 C          5.4338250391       -3.7509297436       -1.1540623541
 C          4.5722594489       -4.5817181475       -1.8523875157
 C          3.2254542143       -4.2734786828       -1.9712984633
 C          2.7059972701       -3.1222911980       -1.3946031294
 C          3.5608302728       -2.2928566225       -0.7031653401
 C         -2.9425304963        0.6300661965       -0.2123936450
 C         -3.8244055168       -0.4072233286       -0.0374224691
 H         -4.3165868812       -0.6981933430        2.6243738583
 H         -4.6334731298        0.9976471853        2.2360842735
 H         -5.9720050848       -0.0808973056        2.6454040998
 H         -6.2450544053        0.2966641005       -1.0845778305
 H         -7.1128250498        0.5309908176        0.4363229462
 H         -5.7617663718        1.5912054136        0.0176970126
 H         -7.5221417413       -1.8612135202        1.4664563855
 H         -7.8721780983       -4.2582630309        1.0088587235
 H         -6.1780990472       -5.5629156124       -0.1928294242
 H         -4.0892995428       -4.4955673390       -0.9694481536
 H         -2.1103073129       -2.9077786758       -1.5768038673
 H         -0.5373325770       -1.0473235696       -1.9183118139
 H         -2.9451597012        2.1456100580       -2.4708062813
 H         -3.7054599728        4.4422207225       -2.9172524703
 H         -2.4386018102        6.3614150983       -2.0065052358
 H         -0.4494828592        5.9562151335       -0.6043193567
 H         -0.5213442087        2.4591782069        1.5788845307
 H          1.3729703646        2.1818768308        3.1195181073
 H          3.5401381906        3.2550917284        2.6160532436
 H          3.8229908695        4.5243987838        0.5202875416
 H          1.9282703396        4.7794480995       -1.0335224521
 H          0.5645125676        2.4759378460       -2.9849205695
 H          2.9033048252        2.0462215911       -3.5617780858
 H          4.2321161350        0.4052256480       -2.2469898529
 H         -0.9698975310        0.0887504289        1.3599148675
 H         -0.8675142354       -1.2797468586        3.3763079736
 H          1.1402282290       -2.5858624712        3.9221581436
 H          3.1137764918       -2.5189851501        2.4199934160
 H          4.1554588281        1.2362629358        1.5460627570
 H          6.5118885259        1.5456623544        2.2676909008
 H          8.2208591827       -0.1077548606        1.6712159454
 H          7.6327996281       -2.1034455466        0.3413112635
 H          6.4814268626       -3.9967398595       -1.0621812662
 H          4.9538018588       -5.4831690295       -2.3095874123
 H          2.5726693922       -4.9377289104       -2.5184188176
 H          1.6558735122       -2.8837908675       -1.4821648600
 H         -3.1563711232        1.6174773334        0.1719105217
