  101
 
 C          5.5081679394       -1.5837107737       -1.6750112685
 C          6.3448890257       -0.7865003588       -0.7209970755
 C          7.6972341830       -1.0521855172       -0.5784918000
 C          8.4832438638       -0.3219914658        0.3068802558
 N          9.8480858908       -0.6139954630        0.4400629381
 C         10.8797176984        0.2999506156        0.3696156876
 C         10.8377825734        1.6614946413        0.1047956816
 C         12.0360835624        2.3480720649        0.0650763034
 C         13.2524009545        1.7017430579        0.2744134499
 C         13.3023023929        0.3431316869        0.5148164671
 C         12.1111331655       -0.3689152713        0.5593003683
 C         11.7950950389       -1.7554653389        0.7591531124
 C         12.5639199788       -2.8845682791        1.0080966403
 C         11.9243873421       -4.0964600980        1.1764988105
 C         10.5356477934       -4.1884697802        1.1136534687
 C          9.7492033624       -3.0795442941        0.8673429958
 C         10.3876016137       -1.8626196894        0.6743722612
 C          7.9070842947        0.6977447432        1.0565478185
 C          6.5626482067        0.9763357928        0.9073854864
 C          5.7731134963        0.2436026403        0.0305092376
 C          4.3322808544        0.5597306783       -0.0975882130
 C          3.3922307512       -0.2280399931        0.5547840170
 C          2.0431350118        0.0514215938        0.4637066515
 C          1.6161606053        1.1312149985       -0.3030113108
 N          0.2523772660        1.4263297672       -0.4123503745
 C         -0.3228098381        2.6678200351       -0.2319953797
 C          0.2620560385        3.8675269232        0.1486175295
 C         -0.5590204602        4.9706278398        0.2894179808
 C         -1.9312707239        4.8886445712        0.0682801144
 C         -2.5230172522        3.6910082803       -0.2869374744
 C         -1.7193470248        2.5708335065       -0.4359962189
 C         -1.9902015982        1.1958505228       -0.7609307508
 C         -3.1500674421        0.5178495670       -1.0901971947
 C         -3.0746638054       -0.8517785917       -1.3571257057
 C         -4.2568861378       -1.6394983602       -1.7230616406
 O         -4.1083579322       -2.5961011436       -2.5442350010
 C         -5.5457602593       -1.3356474466       -1.1743841108
 C         -6.6848341905       -1.9218000135       -1.7838223717
 C         -7.9441733495       -1.6852560621       -1.3072363667
 C         -8.1281266729       -0.8741712447       -0.1800418955
 N         -9.4316440085       -0.6146976018        0.3146521899
 C        -10.1822051600       -1.6301745591        0.8821684444
 C         -9.6849586049       -2.9248198855        1.0266586516
 C        -10.4644832406       -3.9172722716        1.5904526445
 C        -11.7494767859       -3.6397992506        2.0274828025
 C        -12.2531547804       -2.3546788699        1.9127260696
 C        -11.4792122292       -1.3535721784        1.3506658006
 O        -12.0234765257       -0.1014588834        1.2844086323
 C        -11.2659774101        0.8929525664        0.7321476757
 C        -11.8262270459        2.1575816315        0.6665098849
 C        -11.1176076777        3.2023958443        0.0968929555
 C         -9.8519395754        2.9754354097       -0.4184349489
 C         -9.2841233719        1.7167842580       -0.3561609486
 C         -9.9729305824        0.6568119417        0.2320342666
 C         -7.0133539708       -0.3373884938        0.4731270999
 C         -5.7492265081       -0.5693547265       -0.0046650516
 C         -1.8164942689       -1.4856317042       -1.3915084225
 C         -0.6550816509       -0.8194718519       -1.0770771194
 C         -0.7450890393        0.5248502591       -0.7309788688
 C          2.5550771366        1.9161795267       -0.9659974493
 C          3.9100810285        1.6474552038       -0.8670911651
 C          4.9104931996        2.5020487996       -1.5848481710
 H          4.8448694227       -2.2524660925       -1.1269691543
 H          4.8834484721       -0.9288634839       -2.2801468329
 H          6.1344461062       -2.1830076534       -2.3310049331
 H          8.1573221651       -1.8282884630       -1.1729223714
 H          9.9013467130        2.1677268875       -0.0755898403
 H         12.0299924958        3.4092625095       -0.1363238823
 H         14.1671544808        2.2745085688        0.2381137994
 H         14.2458652590       -0.1605851532        0.6615227038
 H         13.6390768225       -2.8103018603        1.0721430574
 H         12.5038616543       -4.9871552530        1.3688692519
 H         10.0628177790       -5.1477984709        1.2645810448
 H          8.6728335158       -3.1577000369        0.8381718047
 H          8.5093009652        1.2543740585        1.7583875842
 H          6.1089371474        1.7641804399        1.4913727290
 H          3.7290499600       -1.0613900859        1.1543864229
 H          1.3203152763       -0.5498327296        0.9935939766
 H          1.3220657275        3.9379932013        0.3404013802
 H         -0.1264181997        5.9162756825        0.5813857209
 H         -2.5391752265        5.7732540432        0.1870081278
 H         -3.5894543335        3.6228888906       -0.4411829740
 H         -4.0854293064        1.0491418019       -1.1723524637
 H         -6.5233081868       -2.5425474537       -2.6517556703
 H         -8.8090362228       -2.1081444194       -1.7985706693
 H         -8.6814450540       -3.1412502461        0.6973147420
 H        -10.0613465867       -4.9128872464        1.6900282622
 H        -12.3577896962       -4.4156589505        2.4642972343
 H        -13.2437442176       -2.1041944833        2.2567637901
 H        -12.8187774373        2.2992020193        1.0628846787
 H        -11.5587529926        4.1852555468        0.0501146206
 H         -9.3008809271        3.7820182688       -0.8762582872
 H         -8.3036208951        1.5396712915       -0.7679674520
 H         -7.1608867614        0.2456164625        1.3718817595
 H         -4.9000188594       -0.1932435442        0.5448740691
 H         -1.7870355912       -2.5293743066       -1.6638130971
 H          0.2973749676       -1.3267834859       -1.1089608527
 H          2.2141898235        2.7358841554       -1.5817004558
 H          5.4632161773        3.1149365189       -0.8731717551
 H          4.4172200267        3.1604323487       -2.2954488787
 H          5.6340213478        1.8849842391       -2.1150807434
