  82
 
 C          9.1582010164        1.2148954961       -0.0524878337
 C          8.5802826362       -0.1706404758        0.2481636051
 C          9.2057664378       -1.1723770711       -0.7327563379
 C          8.9578546873       -0.5447108725        1.6883791955
 C          7.0671825270       -0.2189370644        0.1048182576
 C          6.3072302796        0.8849624744       -0.2614170641
 C          4.9309676876        0.8035548478       -0.3801902994
 C          4.2884910270       -0.3971325672       -0.1403711435
 N          2.8628658493       -0.4878597143       -0.2691304075
 C          2.3407270027       -0.3182147725       -1.5439081037
 O          3.0672792907       -0.1173533250       -2.4941358538
 C          0.8745195943       -0.4078428534       -1.6595548017
 C          0.2792605009       -0.2444510283       -2.8927948824
 C         -1.1080694547       -0.3370250180       -3.0238400564
 C         -1.8965258883       -0.5709388111       -1.9268035737
 C         -1.3241736128       -0.7246373383       -0.6483682063
 C         -2.0987885178       -0.9309547506        0.5249936203
 N         -3.5093537001       -0.9060109723        0.4357224134
 C         -4.2344003599       -2.0838581617        0.5663963531
 C         -3.5599926256       -3.2922996070        0.7588668278
 C         -4.2530841642       -4.4759941203        0.8980202971
 C         -5.6348472071       -4.4753790334        0.8353410076
 C         -6.3010053573       -3.2853210253        0.6113213376
 C         -5.6283894589       -2.0787911006        0.4666635678
 C         -6.4194923368       -0.8161526166        0.1800081816
 C         -7.1838829418       -1.0125639418       -1.1423084741
 C         -7.4059703648       -0.5786656426        1.3381724265
 C         -5.5247220298        0.4034758328        0.0532452049
 C         -6.1146833874        1.6447628661       -0.1971377545
 C         -5.3942553670        2.8142477597       -0.2936833451
 C         -4.0202577423        2.7428349102       -0.1082563665
 C         -3.4116771963        1.5045003543        0.1460109559
 O         -2.0603643172        1.6461704805        0.3243286165
 C         -1.7883111756        2.9689358770        0.1762395587
 C         -0.5429518007        3.5639815339        0.2650162129
 C         -0.4844551308        4.9331042833        0.0769586812
 C         -1.6296329345        5.6800087704       -0.1897447532
 C         -2.8715179981        5.0824893715       -0.2787953856
 C         -2.9539585689        3.7085202611       -0.0951395490
 C         -4.1386816478        0.3091815820        0.2048448759
 C         -1.4854905459       -1.1260961192        1.7426342251
 C         -0.0974949454       -1.0805731478        1.8537750033
 C          0.6859008743       -0.8354578891        0.7442264096
 C          0.0853356804       -0.6592070786       -0.5187179082
 C          2.1469269630       -0.7448082888        0.8932680060
 O          2.7132476656       -0.8712491873        1.9586188634
 C          5.0239044235       -1.5128060948        0.2231196405
 C          6.3953289136       -1.4151626660        0.3461403358
 H          8.7656077262        1.9602320509        0.6352156724
 H         10.2399396086        1.1886398898        0.0632232474
 H          8.9374560405        1.5178966913       -1.0732498006
 H         10.2909882271       -1.1363903497       -0.6635951112
 H          8.9157752074       -0.9294937570       -1.7527861053
 H          8.8850625132       -2.1883490456       -0.5207924677
 H          8.4950305322        0.1466639832        2.3892970603
 H          8.6297364753       -1.5499948193        1.9365726982
 H         10.0372233487       -0.4969579859        1.8168277197
 H          6.7757627146        1.8347877391       -0.4592195708
 H          4.3577977941        1.6725763339       -0.6665266943
 H          0.9071026641       -0.0492448621       -3.7491431799
 H         -1.5582632317       -0.2199741307       -3.9980601967
 H         -2.9691351062       -0.6398668560       -2.0352190097
 H         -2.4815847362       -3.3023409630        0.7924292062
 H         -3.7111336347       -5.3970202995        1.0507375218
 H         -6.1897971298       -5.3940389953        0.9471041493
 H         -7.3780714259       -3.3036134309        0.5444019392
 H         -7.7741084674       -0.1336929659       -1.3853299090
 H         -6.4809728833       -1.1891717964       -1.9543749895
 H         -7.8539693439       -1.8651144334       -1.0793862981
 H         -8.0694180947       -1.4296454490        1.4625118887
 H         -6.8569291248       -0.4327590909        2.2663728647
 H         -8.0147654581        0.3025940136        1.1582477365
 H         -7.1849726828        1.6944882445       -0.3214421198
 H         -5.8782612453        3.7561870182       -0.4944505646
 H          0.3370540146        2.9764919845        0.4736818025
 H          0.4698863375        5.4337645422        0.1385886617
 H         -1.5401616532        6.7469268244       -0.3291338037
 H         -3.7573210752        5.6629162250       -0.4860547078
 H         -2.0931948896       -1.2910594777        2.6202100492
 H          0.3843213809       -1.2101834170        2.8111311364
 H          4.5223831860       -2.4496307877        0.4133542684
 H          6.9460901327       -2.2977759727        0.6331013255
