  106
 
 C         -6.1958086775        3.8270142213       -4.1625750098
 C         -5.3488386736        4.4393867348       -3.2545961245
 C         -4.7077994203        3.6873159060       -2.2875342226
 C         -4.9133369868        2.3129447001       -2.2091206459
 C         -4.2231619873        1.5258229457       -1.1712910020
 C         -2.8485147139        1.6578488985       -1.0265640036
 C         -2.1510288068        0.9359988705       -0.0698696697
 C         -0.6997061334        1.1434276942        0.0836403803
 C          0.1584163099        0.9320979390       -0.9905236421
 C          1.5217672083        1.0864109735       -0.8415750488
 C          2.0516951561        1.4835973200        0.3836381236
 C          3.4877504581        1.6365941453        0.5748565975
 N          4.0601406058        2.6769897983        1.1176538335
 C          5.3983301955        2.4311120206        1.0728869669
 C          6.4543716984        3.2850925689        1.4948665354
 C          6.1924698013        4.5506801611        2.0302757394
 C          7.2264708853        5.3763167090        2.3937339325
 C          8.5402312776        4.9447371826        2.2204220434
 C          8.8088779650        3.6998056963        1.7016207297
 C          7.7795691928        2.8220259791        1.3279662595
 C          8.0285655607        1.4866068277        0.8136875292
 C          9.3269194186        0.9654682600        0.7195186137
 C          9.5696559941       -0.3148677458        0.2820737848
 C          8.5098566710       -1.1467766677       -0.0647054518
 C          7.2233843172       -0.6724088512        0.0039475851
 C          6.9564656745        0.6417276850        0.4141859896
 C          5.6438845022        1.1859793529        0.4973751906
 N          4.4020421283        0.6869874923        0.1697916378
 C          4.0473465057       -0.5204809916       -0.4554233217
 C          3.1653293971       -1.3881972219        0.1802091832
 C          2.7720795866       -2.5509668587       -0.4503422670
 C          3.2526123549       -2.8750121293       -1.7174302908
 C          2.8419953296       -4.1214658948       -2.3725363786
 C          1.5309907141       -4.5903328671       -2.3001931857
 C          1.2005442318       -5.7760432213       -2.9315868284
 C          2.1938856844       -6.4559831035       -3.6209260194
 N          3.4425398743       -6.0277662016       -3.6937042489
 C          3.7548227801       -4.8997570550       -3.0875831389
 C          4.1349607436       -1.9970582536       -2.3456656313
 C          4.5232746159       -0.8258052073       -1.7277406219
 C          1.1895356723        1.7496092746        1.4445542801
 C         -0.1695968295        1.5670342452        1.2991202075
 C         -2.8375139136        0.0415533501        0.7572852898
 C         -2.0942472812       -0.7417440061        1.7642681646
 C         -1.0188058198       -1.5375106271        1.3798073325
 C         -0.3164969037       -2.2669794005        2.3203521649
 C         -0.6745012051       -2.2097210216        3.6565262416
 C         -1.7409195631       -1.4183085338        4.0475961699
 C         -2.4471448657       -0.6898372138        3.1088719949
 C         -4.2210282507       -0.1024139606        0.6188951777
 C         -4.9500706740       -1.0481035978        1.4898380635
 C         -4.6076753238       -2.3962236118        1.5051394539
 C         -5.2913434929       -3.2832079502        2.3153227151
 C         -6.3221509526       -2.8344542784        3.1233050048
 C         -6.6666865929       -1.4934478386        3.1166491818
 C         -5.9869770585       -0.6053078097        2.3043761440
 C         -4.9180527460        0.6421058737       -0.3380143445
 C         -6.3836658510        0.5072412998       -0.4583003131
 C         -6.9686335960       -0.7305293663       -0.7054225437
 C         -8.3415697174       -0.8457962736       -0.8164413202
 C         -9.1476291275        0.2714718852       -0.6785457150
 C         -8.5733935543        1.5070019853       -0.4318244390
 C         -7.2006088381        1.6255851679       -0.3243807834
 C         -5.7584618917        1.7044880883       -3.1324510910
 C         -6.3938139424        2.4576528664       -4.1016241425
 H         -6.6979368527        4.4146272668       -4.9169189858
 H         -5.1881157358        5.5068878568       -3.2989983827
 H         -4.0553384062        4.1679667280       -1.5721158021
 H         -2.3100212965        2.3400528215       -1.6689639857
 H         -0.2485385012        0.6239111503       -1.9433556633
 H          2.1750833502        0.9138579897       -1.6846004320
 H          5.1610754412        4.8490692143        2.1363944825
 H          7.0296296644        6.3552028649        2.8054708408
 H          9.3578173919        5.5950237276        2.4966552624
 H          9.8412018761        3.4110131359        1.5829306705
 H         10.1701113666        1.5730208861        1.0058128628
 H         10.5840944214       -0.6807976647        0.2225570740
 H          8.6966584902       -2.1622703365       -0.3814369109
 H          6.4035274337       -1.3281151306       -0.2439182992
 H          2.7931322998       -1.1451389927        1.1644501887
 H          2.1019430485       -3.2304512136        0.0545941192
 H          0.7791019648       -4.0202612271       -1.7726721438
 H          0.1931805090       -6.1612852235       -2.8956693904
 H          1.9862227987       -7.3831201924       -4.1382436633
 H          4.7941113466       -4.6052142143       -3.1585471218
 H          4.4982681309       -2.2228418305       -3.3369884814
 H          5.1964260328       -0.1407833309       -2.2225666097
 H          1.6039889981        2.0865213227        2.3821124209
 H         -0.8325384741        1.7575916806        2.1301344251
 H         -0.7403216783       -1.5885172539        0.3364868592
 H          0.5142203826       -2.8857245284        2.0123602543
 H         -0.1237981802       -2.7798588376        4.3901398215
 H         -2.0235272132       -1.3676355305        5.0888755734
 H         -3.2732555762       -0.0665710632        3.4187328699
 H         -3.8075519353       -2.7491048319        0.8701284675
 H         -5.0189763247       -4.3286962199        2.3159172847
 H         -6.8554888644       -3.5279661396        3.7566131594
 H         -7.4687980865       -1.1375440476        3.7466314284
 H         -6.2535317957        0.4418278063        2.3053611928
 H         -6.3414767482       -1.6027955219       -0.8213162328
 H         -8.7842126813       -1.8117687012       -1.0116086938
 H        -10.2203928103        0.1796861487       -0.7637116170
 H         -9.1974624008        2.3820180447       -0.3226038252
 H         -6.7540224112        2.5895308973       -0.1261649590
 H         -5.9088613641        0.6356713245       -3.0948962722
 H         -7.0472227309        1.9737508077       -4.8128325824
