  74
 
 N         -6.6094098155        0.1245248880       -1.7183342787
 C         -5.6741390727       -0.5170077496       -1.5295470504
 C         -4.5410319654       -1.3142367581       -1.2962716070
 C         -4.4324197606       -2.5824240458       -1.8845948480
 C         -3.3425134781       -3.3836576863       -1.6392502773
 C         -2.3091310486       -2.9591683381       -0.7905067819
 C         -1.0970000633       -3.7485694048       -0.5904271041
 C         -1.0890952466       -5.1578992589       -0.6115158851
 C          0.1071396814       -5.8351898912       -0.4192936696
 C          1.2901731312       -5.1653744659       -0.2038033723
 C          1.3195691867       -3.7456810221       -0.1779810571
 C          2.4956497146       -2.9812170391        0.1071128037
 C          3.6358442208       -3.5320933149        0.7784739916
 C          4.6846833615       -2.7549345930        1.1629979371
 C          4.7051159961       -1.3566426910        0.9171604062
 C          5.6936262611       -0.5565933205        1.4689199907
 N          6.5291818991        0.0948802299        1.9349172776
 C          3.6006839620       -0.8037782676        0.1758201226
 N          3.5290732093        0.5643684742       -0.0906247605
 C          2.4049192917        1.3365860507        0.1332220478
 C          1.2090038853        0.9982218755        0.7547539575
 C          0.2320933977        1.9716262001        0.8540633102
 C          0.4384671556        3.2558729395        0.3582703524
 C          1.6460388132        3.6123080125       -0.2194399615
 C          2.6402694804        2.6530083151       -0.3275840002
 C          3.9837212281        2.6649108449       -0.8486607750
 C          4.7662545419        3.6409933810       -1.4416866610
 C          6.0371475387        3.2975356492       -1.8733204410
 C          6.5151090781        1.9971871636       -1.7391659873
 C          5.7500852084        1.0045451845       -1.1555347204
 C          4.4909532058        1.3529907573       -0.6851919003
 C          2.5617020669       -1.6062748366       -0.2080257972
 C          0.0978760468       -3.0851313785       -0.3893156925
 C         -2.4370189204       -1.7071794401       -0.1798469409
 C         -3.5134785023       -0.8813415680       -0.4329194615
 N         -3.5612328459        0.3834071670        0.1732506333
 C         -3.4306925336        0.6215561829        1.5245069439
 C         -3.3549286432       -0.2832623501        2.5749242599
 C         -3.2408103294        0.2268345104        3.8548768151
 C         -3.2106070811        1.5992118666        4.0894068542
 C         -3.3044053186        2.5049678818        3.0471406178
 C         -3.4177056260        2.0178861604        1.7540973105
 C         -3.5306552042        2.6421508147        0.4623431722
 C         -3.5398381655        3.9615215338        0.0385684861
 C         -3.6257748138        4.2188206360       -1.3183428028
 C         -3.6882249479        3.1806555108       -2.2438859725
 C         -3.6786336936        1.8572532104       -1.8456070359
 C         -3.6162748344        1.5943284393       -0.4843232285
 H         -5.2217868391       -2.9171198336       -2.5416045186
 H         -3.2668258762       -4.3414294240       -2.1304915554
 H         -2.0076046079       -5.7060166702       -0.7497568447
 H          0.1074703682       -6.9158888040       -0.4400311711
 H          2.2035626389       -5.7254583220       -0.0820870351
 H          3.6461935728       -4.5835285843        1.0178550740
 H          5.5228601465       -3.1851067845        1.6917375853
 H          1.0516583817        0.0117063720        1.1642264225
 H         -0.7068035126        1.7347169249        1.3317179707
 H         -0.3550287211        3.9832242208        0.4389404458
 H          1.8128584719        4.6168941367       -0.5764893588
 H          4.3907348502        4.6450860849       -1.5665445996
 H          6.6650280999        4.0462629911       -2.3320218978
 H          7.5023751533        1.7561072284       -2.1019027757
 H          6.1240306915       -0.0034188107       -1.0712701889
 H          1.7907636430       -1.1572955347       -0.8150570338
 H          0.0823404293       -2.0078858194       -0.3866955766
 H         -1.6795019306       -1.3568271735        0.5051139428
 H         -3.3912484289       -1.3480065222        2.4003867970
 H         -3.1768744017       -0.4538818020        4.6902651978
 H         -3.1194295294        1.9589158443        5.1030412331
 H         -3.2918994916        3.5678244833        3.2338441922
 H         -3.4792495834        4.7676571912        0.7541339432
 H         -3.6386596933        5.2398154554       -1.6689305281
 H         -3.7435879011        3.4134898485       -3.2963153943
 H         -3.7168830213        1.0605525066       -2.5722540008
