  45
 
 C         -2.2991047631       -2.5562858999       -2.5995902470
 C         -0.8927558886       -2.5909334258       -2.6164087208
 C         -0.1732007917       -1.7638991174       -1.7766669159
 C         -0.8062465196       -0.8905252881       -0.9080019922
 C         -2.2271954111       -0.8580200038       -0.8936801345
 C         -2.9512189097       -1.7016684803       -1.7497665442
 N         -2.8802477604       -0.0063223276       -0.0475573635
 C         -2.2608354405        0.8508483142        0.8180712448
 C         -3.0180378250        1.6907206770        1.6489694500
 C         -2.3995559804        2.5516124039        2.5173642262
 C         -0.9948634879        2.5965500217        2.5791899350
 C         -0.2428140548        1.7727524793        1.7649119736
 C         -0.8414956268        0.8934133984        0.8782792479
 C         -0.0000081245        0.0026697861        0.0002348098
 C          0.8397819342        0.8959146601       -0.8768961608
 C          0.2394425775        1.7753913100       -1.7622825579
 C          0.9899310229        2.6013159335       -2.5758259768
 C          2.3947251336        2.5584568065       -2.5145661967
 C          3.0148298056        1.6974845861       -1.6474108196
 C          2.2592212158        0.8554830385       -0.8172336605
 N          2.8802533163       -0.0017303228        0.0471925256
 C          2.2288105596       -0.8553422408        0.8926172416
 C          2.9544416594       -1.6987936633        1.7475543467
 C          2.3039351384       -2.5552938863        2.5967125997
 C          0.8976580404       -2.5921069847        2.6140125748
 C          0.1765299195       -1.7653080156        1.7753710047
 C          0.8079312147       -0.8900656106        0.9074039708
 H         -2.8595754909       -3.2033455814       -3.2565679240
 H         -0.3811372309       -3.2640916422       -3.2859251508
 H          0.9071424313       -1.7923661561       -1.7913484839
 H         -4.0323058728       -1.6642736383       -1.7260936609
 H         -3.8914765924       -0.0098538533       -0.0639358077
 H         -4.0975077365        1.6454955440        1.5907256130
 H         -2.9854524046        3.1959075505        3.1546024942
 H         -0.5097884393        3.2748924356        3.2630663346
 H          0.8362833587        1.8087521318        1.8142070168
 H         -0.8397260411        1.8097864326       -1.8111698173
 H          0.5035745914        3.2797353015       -3.2587153217
 H          2.9793995033        3.2043986847       -3.1512567297
 H          4.0943896906        1.6538430226       -1.5896120191
 H          3.8914927912       -0.0037132742        0.0632132666
 H          4.0354608955       -1.6597235317        1.7235255755
 H          2.8656360410       -3.2021897714        3.2528035137
 H          0.3873086803       -3.2667355591        3.2830180222
 H         -0.9037631503       -1.7954514784        1.7903917377
