83

C      6.496285    0.922625   -1.230835
C      5.556331    0.923618    0.004248
C      6.397629    1.003625    1.304973
C      4.674418    2.176567   -0.069648
C      5.276724    3.460138   -0.102793
C      4.521388    4.628124   -0.171510
C      3.141747    4.542742   -0.208676
C      2.529179    3.289697   -0.173943
C      3.272404    2.086268   -0.101492
N      2.610994    0.810233   -0.062527
C      1.179061    0.763531   -0.030215
C      0.441126    0.660359   -1.213232
C     -0.956318    0.595124   -1.174181
C     -1.667155    0.664668    0.044925
C     -3.241229    0.519674    0.077530
C     -3.961550    1.327129    1.230454
C     -3.428221    2.511315    1.779893
C     -4.109078    3.229026    2.768073
C     -5.352835    2.796709    3.214864
C     -5.924306    1.655458    2.663652
C     -5.244492    0.937059    1.676050
C     -3.842566    1.075201   -1.252368
C     -3.742813    2.453004   -1.564368
C     -4.257310    2.977552   -2.752445
C     -4.876851    2.139324   -3.668690
C     -4.972467    0.777748   -3.396311
C     -4.456943    0.247255   -2.200369
C     -4.562850   -1.207292   -1.992718
O     -5.040287   -1.923453   -2.867604
C     -4.106493   -1.794497   -0.721461
C     -4.319719   -3.170702   -0.522256
C     -3.957422   -3.780225    0.675367
C     -3.383245   -3.017602    1.682372
C     -3.165401   -1.651767    1.484339
C     -3.514100   -1.006681    0.272703
C     -0.898621    0.750264    1.225799
C      0.498366    0.809410    1.190321
C      3.357770   -0.418339   -0.023560
C      4.776132   -0.405405    0.015893
C      5.502036   -1.623293    0.070044
C      4.880661   -2.873332    0.078770
C      3.484462   -2.917394    0.029110
C      2.780318   -1.716387   -0.018421
O      1.440373   -1.996990   -0.065042
C      1.284553   -3.341962   -0.054870
C      0.064209   -4.009867   -0.104800
C      0.117354   -5.406610   -0.081858
C      1.339823   -6.080455   -0.012839
C      2.552424   -5.375845    0.032829
C      2.518469   -3.968547    0.009633
H      7.193544    0.078012   -1.227103
H      5.919402    0.865880   -2.162626
H      7.116858    1.823576   -1.285693
H      7.012370    1.909280    1.349613
H      7.091096    0.161984    1.407514
H      5.750789    1.003762    2.191428
H      6.359332    3.564394   -0.074755
H      5.012413    5.596941   -0.197018
H      2.536119    5.442777   -0.265083
H      1.442796    3.271767   -0.208157
H      0.958822    0.601027   -2.167163
H     -1.471524    0.471459   -2.124189
H     -2.475468    2.909259    1.437146
H     -3.669232    4.133825    3.180234
H     -5.883317    3.357126    3.979932
H     -6.905997    1.325042    2.993860
H     -5.741151    0.065223    1.253749
H     -3.246416    3.140663   -0.883509
H     -4.167873    4.041094   -2.960019
H     -5.277994    2.539458   -4.596040
H     -5.448773    0.123540   -4.125009
H     -4.781146   -3.771499   -1.304645
H     -4.129774   -4.843138    0.821113
H     -3.100694   -3.480707    2.624816
H     -2.725360   -1.089207    2.304625
H     -1.372266    0.758452    2.204681
H      1.061599    0.870251    2.117938
H      6.590365   -1.614579    0.106137
H      5.470566   -3.783793    0.117700
H     -0.870550   -3.466277   -0.163821
H     -0.809668   -5.974489   -0.121900
H      1.352807   -7.168293    0.001785
H      3.496363   -5.909615    0.081644
