  56
 
 O          4.4106011726       -0.8011161339       -0.7328794415
 C          5.2138106967       -0.1069017521       -0.1413835054
 C          4.8650299233        1.3011734312        0.3320067117
 C          3.5930860958        1.7877143791       -0.2892274504
 C          2.3655459587        1.2043777853       -0.0026161669
 C          1.2425397158        1.7044716359       -0.6649641287
 C         -0.1134746524        1.1857266330       -0.4669911678
 C         -0.4523197213        0.3721718053        0.6150926612
 C         -1.7432428753       -0.0905528150        0.7692557794
 C         -2.7280049117        0.2479986480       -0.1559042460
 N         -4.0481750994       -0.2223651206        0.0084999269
 C         -4.3246224397       -1.5913265529       -0.0340829225
 C         -3.3466188261       -2.5373540613       -0.3171101059
 C         -3.6545285762       -3.8890502696       -0.3555900732
 C         -4.9456805223       -4.3183660782       -0.1231488147
 C         -5.9404998856       -3.3844900735        0.1291357095
 C         -5.6383554939       -2.0358415777        0.1669805312
 O         -6.6837754128       -1.1704941375        0.3927419816
 C         -6.3972916746        0.1753310182        0.4134529014
 C         -7.4562768228        1.0348939786        0.6401526632
 C         -7.2447830577        2.4045126551        0.7075638173
 C         -5.9652284905        2.9015909615        0.5627576988
 C         -4.9003369694        2.0434394714        0.3328171051
 C         -5.0989954298        0.6714912091        0.2333420589
 C         -2.3983689262        1.0607053711       -1.2387183507
 C         -1.1085519000        1.5237943675       -1.3876228344
 N          1.3747439195        2.7108737399       -1.5402998175
 C          2.5816717409        3.1913171837       -1.7353161501
 N          3.7003016852        2.7900541829       -1.1599978329
 C          6.5811706800       -0.5817331410        0.1625573935
 C          7.0190497012       -1.7473547312       -0.4721426392
 C          8.2845567357       -2.2466546392       -0.2349363650
 C          9.1299735402       -1.5933170369        0.6483587296
 C          8.7023586416       -0.4422878192        1.2925742379
 C          7.4395266495        0.0665359662        1.0524754762
 H          5.6706559691        1.9858840402        0.0659863763
 H          4.7623516883        1.2653419975        1.4195463851
 H          2.3043376682        0.3795279858        0.6868372699
 H          0.2848865840        0.1142321063        1.3591303479
 H         -2.0004377149       -0.7119865850        1.6144388318
 H         -2.3370126985       -2.2146291387       -0.5169112793
 H         -2.8727808610       -4.6006923252       -0.5730799841
 H         -5.1905890272       -5.3685714331       -0.1474337338
 H         -6.9636719040       -3.6831526934        0.2955659885
 H         -8.4397844731        0.6103427528        0.7674629615
 H         -8.0774523305        3.0673177322        0.8828834650
 H         -5.7804841253        3.9627297095        0.6304595903
 H         -3.9039971315        2.4450607345        0.2373187736
 H         -3.1585418487        1.3196529054       -1.9607056424
 H         -0.8422651364        2.1507672021       -2.2239142742
 H          2.6696316797        4.0069609604       -2.4435743221
 H          6.3448377404       -2.2428074649       -1.1557818999
 H          8.6118953713       -3.1448562224       -0.7367958982
 H         10.1199091948       -1.9813933892        0.8363827695
 H          9.3589025232        0.0627666142        1.9853674739
 H          7.1247746635        0.9585370279        1.5699814300
