  57
 
 O          3.4152946685        2.5504297078       -0.2227667372
 C          3.9630729647        1.4163177179       -0.0877619714
 C          5.3732359864        1.3220373863        0.2442397081
 C          6.0458379311        2.5009660239        0.6341415896
 C          7.3548384968        2.4710209437        1.0469631950
 C          8.0606360103        1.2684379845        1.0920705118
 C          7.4324519183        0.1035798723        0.6875893712
 C          6.1186429546        0.1366838230        0.2657698455
 S          5.4045251654       -1.3431696324       -0.3970033494
 O          5.6722446444       -1.3809687643       -1.8276522227
 O          5.8583097391       -2.5085523871        0.3411438775
 C          3.6697779080       -1.1004717328       -0.1578906681
 C          2.8369874037       -2.2005797729       -0.0867987706
 C          1.4670379356       -2.0414546997       -0.0472689283
 C          0.9145289010       -0.7446009179       -0.1094752386
 C         -0.5322774320       -0.5429326550       -0.0816285717
 C         -1.3606933053       -1.3593671348        0.6995810583
 C         -2.7210718443       -1.1651276466        0.7366478131
 C         -3.3121643573       -0.1361273708       -0.0123092655
 N         -4.6815189520        0.0695163173        0.0269090846
 C         -5.2031641097        1.3605682274       -0.0898553343
 C         -4.5473252687        2.4438048122        0.5038961268
 C         -5.0740113633        3.7149754813        0.3913307279
 C         -6.2532681043        3.9265160107       -0.3087924882
 C         -6.9072732087        2.8544286408       -0.8993607076
 C         -6.3914855492        1.5782443369       -0.7941065788
 C         -5.5535320804       -1.0108736626        0.1874382492
 C         -6.7055007052       -0.8753678487        0.9682491438
 C         -7.5657948522       -1.9443433891        1.1200035552
 C         -7.2957093235       -3.1558540642        0.4995712380
 C         -6.1550673839       -3.2937475814       -0.2786049561
 C         -5.2856136727       -2.2330930154       -0.4371279183
 C         -2.4882049363        0.6831774662       -0.7995389441
 C         -1.1292598020        0.4815247555       -0.8288651077
 C          1.7613610312        0.3479600769       -0.1663917112
 C          3.1625392968        0.2110815136       -0.1539651481
 H          5.4829440837        3.4225764877        0.6046537553
 H          7.8413347524        3.3884236782        1.3440010113
 H          9.0869762381        1.2460139597        1.4228121487
 H          7.9420686995       -0.8484475645        0.6834815947
 H          3.2957085273       -3.1780503521       -0.0807681146
 H          0.8247832781       -2.9065572878       -0.0229159159
 H         -0.9183506523       -2.1305409332        1.3102771941
 H         -3.3378767005       -1.7830639373        1.3714723937
 H         -3.6428322866        2.2754478969        1.0688335468
 H         -4.5663401338        4.5441303413        0.8601965545
 H         -6.6602239851        4.9222446709       -0.3939515144
 H         -7.8194980205        3.0164647527       -1.4529616417
 H         -6.8876090482        0.7470614089       -1.2720257702
 H         -6.9033786419        0.0610834704        1.4674895011
 H         -8.4475096243       -1.8357076410        1.7329439161
 H         -7.9718566882       -3.9880068472        0.6207987321
 H         -5.9469368682       -4.2308396332       -0.7721227343
 H         -4.4101632050       -2.3314979655       -1.0612043559
 H         -2.9325865095        1.4551418760       -1.4094195425
 H         -0.5125484889        1.0996263901       -1.4624222299
 H          1.3763611147        1.3573306910       -0.1693987232
