  58
 
 C          6.8656291559        2.3977905189       -0.0000996117
 C          6.0498366534        1.1513993386       -0.0001007987
 N          6.6988801969       -0.0000330434       -0.0001019592
 C          6.0498341424       -1.1514642085       -0.0000390623
 C          6.8656233336       -2.3978576174       -0.0000674470
 C          4.6413810201       -1.1972753961        0.0000467153
 C          3.9566748981       -2.4304071726        0.0002413220
 N          3.4058003727       -3.4370499563        0.0002345278
 C          3.9190448551       -0.0000295282       -0.0000156619
 C          2.4405455352       -0.0000262404        0.0000052188
 C          1.7438048640       -0.0001104506        1.2027527531
 C          0.3619508215       -0.0000972031        1.2028663637
 C         -0.3339891961       -0.0000050697        0.0000617447
 N         -1.7561157437        0.0000065816        0.0000820018
 C         -2.4278212739        1.2128221133        0.0000812149
 C         -1.6993578591        2.4061186039        0.0001515128
 C         -2.3392398269        3.6281661349        0.0001606368
 C         -3.7215756113        3.6810645869        0.0001032804
 C         -4.4434397014        2.5012417108        0.0000370327
 C         -3.8261479207        1.2576787538        0.0000246122
 C         -4.6760448511        0.0000334262       -0.0000472336
 C         -5.5576080501        0.0000567963       -1.2632347123
 C         -5.5577751741        0.0000263079        1.2630230404
 C         -3.8261711039       -1.2576275936       -0.0000066427
 C         -4.4434859862       -2.5011791362       -0.0000348461
 C         -3.7216438124       -3.6810154217       -0.0000032464
 C         -2.3393070302       -3.6281425888        0.0000612925
 C         -1.6994023177       -2.4061068616        0.0000912092
 C         -2.4278435357       -1.2127967210        0.0000563756
 C          0.3619035851        0.0000756990       -1.2027702242
 C          1.7437579968        0.0000629757       -1.2027150966
 C          4.6413833520        1.1972160339       -0.0000914393
 C          3.9566849403        2.4303451233       -0.0001861250
 N          3.4058155059        3.4369824540       -0.0000998435
 H          6.6356295348        3.0001097117        0.8781562902
 H          6.6356302075        3.0001277123       -0.8783418103
 H          7.9208721767        2.1412658902       -0.0000995795
 H          7.9208664605       -2.1413351416       -0.0001561288
 H          6.6356904431       -3.0001630664        0.8782145336
 H          6.6355555417       -3.0002078494       -0.8782833660
 H          2.2845065010       -0.0001818215        2.1382139768
 H         -0.1836619089       -0.0001578553        2.1344400951
 H         -0.6202048086        2.3739668016        0.0002001278
 H         -1.7538090830        4.5359743746        0.0002125508
 H         -4.2349624417        4.6309756276        0.0001123323
 H         -5.5215222737        2.5578095175       -0.0000065036
 H         -6.1935107747       -0.8803839765       -1.2919186699
 H         -4.9307374280        0.0000526085       -2.1535210863
 H         -6.1934812896        0.8805192159       -1.2919065624
 H         -4.9310198626        0.0000224015        2.1533908059
 H         -6.1936671192       -0.8804246517        1.2916135091
 H         -6.1936685459        0.8804759605        1.2916219515
 H         -5.5215696235       -2.5577270479       -0.0000846676
 H         -4.2350483409       -4.6309169236       -0.0000291100
 H         -1.7538933216       -4.5359618510        0.0000858199
 H         -0.6202485938       -2.3739749242        0.0001414241
 H         -0.1837497199        0.0001436723       -2.1343204716
 H          2.2844170359        0.0001286650       -2.1382013652
