  63
 
 N          5.7803084686        3.2681528251        0.1568991519
 C          6.2453479224        2.2206706676        0.0792816203
 C          6.8766999804        0.9588142207        0.0159032290
 C          8.2729866794        0.9190521834        0.0191809965
 C          8.9288746561       -0.2960125189        0.0146630629
 C          8.1974190610       -1.4753133697        0.0175598697
 C          6.8145346603       -1.4402103486        0.0169247192
 C          6.1280509780       -0.2298529572        0.0070591554
 C          4.6587537108       -0.1993956841       -0.0109730348
 C          3.9270644242       -0.9951528078        0.8687352923
 C          2.5475474244       -0.9581159434        0.8729943880
 C          1.8666204309       -0.1369235328       -0.0230913079
 N          0.4670371104       -0.0932065806       -0.0208998361
 C         -0.3794984481       -1.1848312449       -0.0369650847
 C         -0.0845394560       -2.5392021639       -0.1089505902
 C         -1.1363825552       -3.4323557809       -0.1319316121
 C         -2.4727765619       -3.0106336052       -0.1037125366
 C         -3.5592962545       -4.0031889722       -0.1247559552
 C         -4.6819941876       -3.8119469729       -0.9275273075
 C         -5.7039553754       -4.7433269290       -0.9444560412
 C         -5.6248303870       -5.8794398272       -0.1558533137
 C         -4.5144149859       -6.0793746792        0.6477594194
 C         -3.4892751056       -5.1514228837        0.6615040023
 C         -2.7625089466       -1.6526160343       -0.0638865569
 C         -1.7209193301       -0.7382885463       -0.0298345364
 C         -1.6723264173        0.6981294778        0.0031362767
 C         -2.6498898907        1.6804944893        0.0451599917
 C         -2.2685850279        3.0155835238        0.0835694716
 C         -3.2840904072        4.0804682107        0.1161725922
 C         -3.1410065168        5.2235061693       -0.6677474625
 C         -4.0964216406        6.2227501928       -0.6386949632
 C         -5.2086632110        6.1001259084        0.1778410747
 C         -5.3607200696        4.9690378744        0.9629444490
 C         -4.4088259173        3.9665084046        0.9306663760
 C         -0.9064403761        3.3461544772        0.1022901367
 C          0.0830518335        2.3846133671        0.0711845866
 C         -0.3040679242        1.0534910225        0.0008854815
 C          2.5919519898        0.6424492520       -0.9214282775
 C          3.9716752242        0.6156338179       -0.9081351227
 H          8.8265103285        1.8469280171        0.0299066433
 H         10.0078444605       -0.3240614493        0.0132210895
 H          8.7092938262       -2.4260650327        0.0174024299
 H          6.2499720791       -2.3606125386        0.0040785922
 H          4.4468704876       -1.6210000083        1.5791403185
 H          1.9902818047       -1.5498393109        1.5834715191
 H          0.9352275148       -2.8895126229       -0.1590828399
 H         -0.9262600779       -4.4898670010       -0.1984048839
 H         -4.7428995687       -2.9347881623       -1.5559321192
 H         -6.5660983286       -4.5833690161       -1.5765221646
 H         -6.4250811119       -6.6052356799       -0.1672678325
 H         -4.4486407439       -6.9618300339        1.2684800068
 H         -2.6328163137       -5.3059289323        1.3022557412
 H         -3.7869290720       -1.3121652653       -0.0417084288
 H         -3.6950841604        1.4099782647        0.0307942458
 H         -2.2825798864        5.3186775296       -1.3173758296
 H         -3.9739731761        7.1011253370       -1.2565929983
 H         -5.9531960061        6.8826672911        0.2025080383
 H         -6.2245542618        4.8693257991        1.6050013233
 H         -4.5252719507        3.0933924537        1.5568557599
 H         -0.6242711529        4.3868072174        0.1680960871
 H          1.1244870896        2.6664740977        0.1141978914
 H          2.0692913086        1.2585090647       -1.6372752374
 H          4.5213803497        1.2155672794       -1.6187231564
