  53
 
 O          2.0497340439       -2.6372925247       -1.2305170828
 C          1.7653156000       -1.4988867332       -0.9109710073
 C          0.3600307476       -1.0928525006       -0.6660608908
 C          0.0178817019       -0.1498694296        0.3021918083
 C         -1.3052571918        0.1664594445        0.5308291574
 C         -2.3138195751       -0.4406623850       -0.2174790726
 N         -3.6509874536       -0.1070448739        0.0040149113
 C         -4.6932009887       -1.0025630455        0.1681408635
 C         -4.6694139273       -2.3887077061        0.2186001041
 C         -5.8662989576       -3.0472575435        0.4283592812
 C         -7.0608622092       -2.3509999213        0.5957598901
 C         -7.0858195230       -0.9708121111        0.5761917310
 C         -5.8955666725       -0.2872869956        0.3666468801
 C         -5.5565787737        1.1077495189        0.3121312463
 C         -6.3025570962        2.2740985148        0.4153810911
 C         -5.6549407623        3.4868140305        0.2887068961
 C         -4.2850993899        3.5439038950        0.0443473543
 C         -3.5221184267        2.3964018808       -0.0626805854
 C         -4.1622578219        1.1754318905        0.0919565928
 C         -1.9752981325       -1.3892655325       -1.1825318257
 C         -0.6536298540       -1.7209849928       -1.3886609779
 C          2.8083206281       -0.4559541965       -0.7476247484
 C          2.5558690649        0.8909818192       -1.0383207230
 C          3.5515296476        1.8371755297       -0.9165501673
 C          4.8083940528        1.4333708269       -0.4905563026
 S          6.1922413915        2.4710281098       -0.2620654358
 C          7.1726877625        1.1008953114        0.2208054665
 C          8.5078683693        1.1484577091        0.5847709189
 C          9.1336809285       -0.0312164182        0.9397103094
 C          8.4383417021       -1.2368066318        0.9309953210
 C          7.1080834357       -1.2822221325        0.5676184594
 C          6.4559498558       -0.1068824598        0.2063418548
 C          5.0885337993        0.0836865417       -0.2047445352
 C          4.0782977024       -0.8555960221       -0.3504388650
 H          0.7890782979        0.3104193793        0.9023354990
 H         -1.5702872939        0.8703727065        1.3053211167
 H         -3.7473495864       -2.9397111460        0.1125334869
 H         -5.8737474044       -4.1264499095        0.4674095171
 H         -7.9755814920       -2.9024860349        0.7539245486
 H         -8.0076668790       -0.4293464710        0.7255151464
 H         -7.3674489630        2.2279913081        0.5859828118
 H         -6.2156236734        4.4061033566        0.3687227038
 H         -3.8081204209        4.5063220592       -0.0682452037
 H         -2.4648340137        2.4541212806       -0.2730431043
 H         -2.7530745790       -1.8486187117       -1.7734137831
 H         -0.3799417635       -2.4594180180       -2.1273231442
 H          1.5786351672        1.1874097396       -1.3887127881
 H          3.3639928442        2.8738706984       -1.1494934739
 H          9.0401073488        2.0869125055        0.5881417642
 H         10.1742861833       -0.0160640470        1.2264687425
 H          8.9480587464       -2.1460714054        1.2118528307
 H          6.5701476978       -2.2177626767        0.5597010949
 H          4.2603201057       -1.9008854799       -0.1519746830
