  55
 
 O          7.0582258246       -1.3921183735       -0.4632289947
 C          5.9891411606       -0.8742324321       -0.1932026220
 C          5.8832106400        0.5623064137        0.1535543237
 C          7.0468228229        1.3254825593        0.1955461539
 C          6.9987468915        2.6696400423        0.5172201727
 C          5.7811878010        3.2714272100        0.7995922740
 C          4.6177320323        2.5257997360        0.7580672732
 C          4.6535827651        1.1705244837        0.4379524316
 C          3.3844492828        0.4156095472        0.4043030910
 O          2.3060865221        0.9480154356        0.5930991937
 C          3.4999939270       -1.0310524005        0.1127795939
 C          2.3382111544       -1.7900664590        0.1249226153
 C          2.3756349019       -3.1436629226       -0.1790983668
 S          0.9364713208       -4.1601490980       -0.1812750528
 C         -0.3726786941       -2.9493732141       -0.1834643659
 C         -1.3164998355       -2.9634892441        0.8318661189
 C         -2.3202334016       -2.0147105183        0.8482614167
 C         -2.3850243484       -1.0461636505       -0.1516416319
 N         -3.3742155541       -0.0622135624       -0.1213830071
 C         -4.7292627966       -0.2733054392        0.0544650582
 C         -5.4289352249       -1.4635308227        0.1876738659
 C         -6.8029033488       -1.3927184826        0.3199342448
 C         -7.4725422169       -0.1715927117        0.3108066095
 C         -6.7837106154        1.0143660437        0.1515692005
 C         -5.4026205607        0.9687164128        0.0171598883
 C         -4.3963528983        1.9749145403       -0.1817922066
 C         -4.4387013163        3.3595905115       -0.2781529879
 C         -3.2527548482        4.0467433693       -0.4430432634
 C         -2.0351703857        3.3720677395       -0.4926583368
 C         -1.9671476119        1.9947798565       -0.3997615820
 C         -3.1590419553        1.2979069715       -0.2645042578
 C         -1.4485998056       -1.0605797325       -1.1854083753
 C         -0.4511360491       -2.0125773863       -1.2057233703
 C          3.5992059789       -3.7508653325       -0.4678199463
 C          4.7557842760       -3.0032893549       -0.4639571425
 C          4.7290422063       -1.6361191321       -0.1816686352
 H          7.9836951421        0.8373753202       -0.0291088833
 H          7.9091502110        3.2494287377        0.5479584322
 H          5.7408645545        4.3207309447        1.0511167817
 H          3.6586165862        2.9734861582        0.9730527076
 H          1.4140952107       -1.2920200634        0.3777447510
 H         -1.2500027152       -3.7041010830        1.6138978954
 H         -3.0387732386       -1.9999441422        1.6533193741
 H         -4.9228282237       -2.4171738227        0.1758703646
 H         -7.3697220927       -2.3055347705        0.4289734936
 H         -8.5466854576       -0.1581255275        0.4201631083
 H         -7.3040094000        1.9598707185        0.1267132838
 H         -5.3810852021        3.8828141990       -0.2184724450
 H         -3.2633926039        5.1236276021       -0.5228303397
 H         -1.1211001738        3.9365659163       -0.6007424879
 H         -1.0137300689        1.4889145649       -0.4138497185
 H         -1.5174240604       -0.3309012345       -1.9774482247
 H          0.2726513300       -2.0262755508       -2.0069548339
 H          3.6246078415       -4.8060540428       -0.6934550709
 H          5.7090733198       -3.4587635276       -0.6869375688
