  63
 
 N          5.7713724566        3.2601796512        0.1491240047
 C          6.2419961897        2.2167264993        0.0754421823
 C          6.8754283758        0.9539132056        0.0119205210
 C          8.2701002990        0.9120232433        0.0120067273
 C          8.9245855473       -0.3037088256        0.0025196669
 C          8.1919536507       -1.4816130504        0.0032394455
 C          6.8095692926       -1.4443654079        0.0068538997
 C          6.1254840906       -0.2329141064        0.0025603567
 C          4.6571398901       -0.1994788157       -0.0093681653
 C          3.9280011948       -1.0088752161        0.8594035445
 C          2.5490625394       -0.9707420924        0.8696385903
 C          1.8658409006       -0.1339933308       -0.0101124810
 N          0.4689515187       -0.0905992118       -0.0042467793
 C         -0.3775789853       -1.1821464284       -0.0233095041
 C         -0.0832029421       -2.5358009643       -0.1014464703
 C         -1.1354952487       -3.4280456080       -0.1273842468
 C         -2.4714033331       -3.0062509371       -0.0943540650
 C         -3.5567733608       -3.9982266763       -0.1178068385
 C         -4.6952444027       -3.7886244071       -0.8928728799
 C         -5.7151219348       -4.7213898528       -0.9143582161
 C         -5.6178876142       -5.8780761298       -0.1591904537
 C         -4.4920822347       -6.0962600806        0.6170135198
 C         -3.4696412784       -5.1662068657        0.6365114850
 C         -2.7602541203       -1.6482590385       -0.0509070460
 C         -1.7184670940       -0.7352026682       -0.0171657640
 C         -1.6698005422        0.7009606910        0.0149093238
 C         -2.6477959852        1.6823595531        0.0498027927
 C         -2.2670286478        3.0173949615        0.0913390501
 C         -3.2828442728        4.0806120371        0.1129985748
 C         -3.1158890950        5.2387706792       -0.6430441910
 C         -4.0737433331        6.2352593571       -0.6271867724
 C         -5.2132300601        6.0944564778        0.1469774774
 C         -5.3891334916        4.9485193913        0.9042718354
 C         -4.4340530241        3.9494064132        0.8864311643
 C         -0.9052935639        3.3477127932        0.1223126767
 C          0.0846417309        2.3868849334        0.0946902181
 C         -0.3023614800        1.0566605660        0.0173888792
 C          2.5890453976        0.6606718671       -0.8967963187
 C          3.9680087781        0.6329076134       -0.8888091960
 H          8.8254243608        1.8385393514        0.0238969653
 H         10.0034792655       -0.3347604337       -0.0017024710
 H          8.7024212295       -2.4331791437       -0.0020301791
 H          6.2440759582       -2.3645545348       -0.0076926693
 H          4.4503189282       -1.6467010215        1.5576849342
 H          1.9934770087       -1.5718568255        1.5734850161
 H          0.9364983072       -2.8863480348       -0.1562636774
 H         -0.9255567080       -4.4849408912       -0.2013171492
 H         -4.7696308126       -2.8965713799       -1.4979569600
 H         -6.5893627483       -4.5471414519       -1.5250800860
 H         -6.4156574149       -6.6060105839       -0.1754322927
 H         -4.4121379993       -6.9947809708        1.2119909284
 H         -2.6019119248       -5.3346336144        1.2580453352
 H         -3.7838661401       -1.3062883035       -0.0256010831
 H         -3.6922501740        1.4102865605        0.0265667489
 H         -2.2373738066        5.3476579450       -1.2625290823
 H         -3.9323999688        7.1253842468       -1.2232871035
 H         -5.9605116952        6.8742147960        0.1602737795
 H         -6.2741217964        4.8345939409        1.5138101328
 H         -4.5691391316        3.0657451712        1.4933846938
 H         -0.6236055865        4.3876039466        0.1954108713
 H          1.1255610254        2.6679885532        0.1470177392
 H          2.0635592492        1.2875300342       -1.6007672333
 H          4.5158537670        1.2435844237       -1.5909077060
