  34
 
 C          3.8486637143       -2.0913779295        0.2721520655
 C          2.5475880258       -2.4627270795        0.6279947856
 C          1.5198295144       -1.5592646369        0.5452166332
 C          1.7391938721       -0.2436398253        0.0972776306
 C          3.0812514304        0.1652451000       -0.1441293187
 C          4.1091751000       -0.7954553821       -0.0842463112
 C          3.3920653844        1.5307585837       -0.3744902703
 C          2.4342415677        2.4977268153       -0.3004898139
 C          1.1061786972        2.0936282902       -0.1079539950
 N          0.0000124604        2.8870514983       -0.0000038284
 C         -1.1061606117        2.0936381186        0.1079484797
 C         -2.4342199704        2.4977485835        0.3004834415
 C         -3.3920521052        1.5307887957        0.3744865902
 C         -3.0812499671        0.1652720468        0.1441290907
 C         -4.1091819309       -0.7954197267        0.0842487348
 C         -3.8486817753       -2.0913454328       -0.2721463579
 C         -2.5476093486       -2.4627067209       -0.6279883169
 C         -1.5198430447       -1.5592529081       -0.5452127617
 C         -1.7391959757       -0.2436250661       -0.0972770635
 C         -0.7174507388        0.7419343288        0.0258543721
 C          0.7174571523        0.7419280680       -0.0258564669
 H          4.6466519377       -2.8186215718        0.3172110166
 H          2.3567176161       -3.4659018179        0.9819697087
 H          0.5336589271       -1.8423240254        0.8766976757
 H          5.1209874359       -0.4823268737       -0.3025605516
 H          4.4230859510        1.7959350472       -0.5589553110
 H          2.6760903666        3.5458759679       -0.3988214033
 H          0.0000168492        3.8936539479       -0.0000049337
 H         -2.6760597339        3.5459000833        0.3988122915
 H         -4.4230703616        1.7959746418        0.5589510492
 H         -5.1209914877       -0.4822820046        0.3025626370
 H         -4.6466762207       -2.8185823893       -0.3172030729
 H         -2.3567477089       -3.4658839540       -0.9819609144
 H         -0.5336750214       -1.8423215725       -0.8766935112
