  44
 
 O          3.7226675650        2.3529108387        1.4732138147
 C          3.3754085321        1.3566472697        0.8241205290
 C          4.3287233304        0.4554529294        0.1921221156
 C          5.6970796019        0.7337251849        0.3344609034
 C          6.6387135541       -0.0896343970       -0.2300162056
 C          6.2415701381       -1.2154915671       -0.9557236229
 C          4.9087088567       -1.5039678580       -1.1066368159
 C          3.9294036647       -0.6719480071       -0.5401721402
 C          2.5333600103       -1.0256340776       -0.7447701597
 O          2.1788222801       -2.0212035411       -1.3894830116
 C          1.5801698341       -0.1177089667       -0.1217526856
 C          0.2157360632       -0.3949728256       -0.2651578386
 C         -0.7331307606        0.4292605791        0.3044119264
 N         -2.0916358600        0.1365736528        0.1511525956
 C         -2.6878437069       -1.0866327110        0.3856855157
 C         -2.1292781123       -2.2643287910        0.8636483025
 C         -2.9683718697       -3.3495903489        1.0374458203
 C         -4.3287841578       -3.2690359484        0.7529798180
 C         -4.8944331712       -2.0907461633        0.2973894972
 C         -4.0728062069       -0.9897196411        0.1146209871
 C         -4.3109626770        0.3635099622       -0.3157973966
 C         -5.4429661785        1.0508972642       -0.7231299072
 C         -5.3121867896        2.3767966010       -1.0993429760
 C         -4.0716855884        3.0084719852       -1.0858027138
 C         -2.9280509391        2.3430566978       -0.6838220847
 C         -3.0583172192        1.0207101371       -0.2802805522
 C         -0.3300188883        1.5693581816        1.0275541193
 C          1.0003657000        1.8537653933        1.1625503020
 C          1.9826980566        1.0094726045        0.6149553327
 H          5.9741323515        1.6090576779        0.9031376188
 H          7.6887042852        0.1332911787       -0.1118282977
 H          6.9849172882       -1.8600771948       -1.4009103307
 H          4.5724126879       -2.3662663008       -1.6632072018
 H         -0.0730032671       -1.2547097021       -0.8515069202
 H         -1.0783480528       -2.3323670197        1.0978028294
 H         -2.5586639509       -4.2788531100        1.4030059563
 H         -4.9509849110       -4.1391121312        0.8982383362
 H         -5.9519048977       -2.0264145022        0.0916662408
 H         -6.4035627206        0.5597585782       -0.7490722362
 H         -6.1824555164        2.9297223369       -1.4189843211
 H         -3.9992462998        4.0382394383       -1.4014192817
 H         -1.9665006512        2.8325980994       -0.6984938558
 H         -1.0780718465        2.1921870663        1.4939345058
 H          1.3432936123        2.7146305652        1.7177712022
