  93
 
 N          0.0002081767        0.0005420157        1.2549579621
 C          0.0001654535        0.0003005098        0.1069654712
 C          0.0001405331        0.0001191493       -1.3043491493
 C          1.2103730646       -0.1239219864       -2.0111611308
 N          2.4168788641       -0.2685108440       -1.3238594427
 C          2.7138303848       -1.2473165374       -0.3911624641
 C          1.9519257054       -2.3235983336        0.0361604638
 C          2.5100236203       -3.1841709457        0.9596540084
 C          3.8109247866       -3.0087410103        1.4496356134
 C          4.3597259754       -3.9568837998        2.4325919812
 C          5.6686422246       -4.4212040514        2.3199763568
 C          6.1811414832       -5.3162299168        3.2411099409
 C          5.3966769547       -5.7594724098        4.2931846737
 C          4.0952793463       -5.3014108125        4.4175647333
 C          3.5798280777       -4.4096965834        3.4948005139
 C          4.5804485265       -1.9472347032        0.9899746696
 C          4.0367880945       -1.0662601119        0.0681888623
 C          4.5574433683        0.0843160598       -0.6214593442
 C          5.7732370412        0.7489225800       -0.5807688630
 C          5.9630406815        1.8680351455       -1.3828523459
 C          7.2453279153        2.5902342705       -1.3587786852
 C          8.4515559701        1.8930006027       -1.3343530161
 C          9.6571831747        2.5697097904       -1.3121349070
 C          9.6791603313        3.9547535677       -1.3094827681
 C          8.4863273692        4.6585849033       -1.3308839690
 C          7.2799806033        3.9831913513       -1.3575367252
 C          4.9239202922        2.3104283213       -2.2122331108
 C          3.7065050839        1.6617447792       -2.2715694004
 C          3.5313394129        0.5374869974       -1.4792303049
 C          1.1975405499       -0.1069158573       -3.4014162735
 C          0.0001789699       -0.0002844358       -4.0871208565
 C         -1.1971947922        0.1065358722       -3.4014713715
 C         -1.2100780358        0.1239440559       -2.0112168993
 N         -2.4166306003        0.2685942116       -1.3240225224
 C         -2.7137027033        1.2474112780       -0.3913678257
 C         -1.9519613261        2.3238312813        0.0359022979
 C         -2.5102005289        3.1843909319        0.9593276908
 C         -3.8110818093        3.0088066717        1.4493031648
 C         -4.3600682462        3.9568774135        2.4322240255
 C         -5.6690508850        4.4209905688        2.3195233455
 C         -6.1817799246        5.3158668170        3.2406730519
 C         -5.3974802875        5.7591623062        4.2928484806
 C         -4.0960101992        5.3013251326        4.4172975740
 C         -3.5803267873        4.4097644276        3.4945134732
 C         -4.5804537960        1.9471771440        0.9896768944
 C         -4.0366595091        1.0662414401        0.0679397040
 C         -4.5572041725       -0.0843742666       -0.6217167534
 C         -5.7729950681       -0.7489865260       -0.5811318498
 C         -5.9627504370       -1.8680459919       -1.3832987376
 C         -7.2450789002       -2.5901740546       -1.3594075622
 C         -8.4512633989       -1.8928607370       -1.3350443776
 C         -9.6569359421       -2.5694918986       -1.3129557390
 C         -9.6790012621       -3.9545346041       -1.3103828586
 C         -8.4862130753       -4.6584439261       -1.3317395982
 C         -7.2798199509       -3.9831275923       -1.3582585829
 C         -4.9235529963       -2.3104203373       -2.2125907618
 C         -3.7061260213       -1.6617437788       -2.2717931663
 C         -3.5310355043       -0.5374848873       -1.4794365611
 H          0.9538801900       -2.4962656390       -0.3392997543
 H          1.9351781883       -4.0335963778        1.2975895236
 H          6.2806978074       -4.0922669297        1.4923883221
 H          7.1963511414       -5.6720025858        3.1365971263
 H          5.7976409121       -6.4582123315        5.0130206374
 H          3.4792485265       -5.6394860730        5.2387482931
 H          2.5696705246       -4.0424483766        3.6067173652
 H          5.5847185965       -1.7994900257        1.3569384528
 H          6.5534132552        0.4152301993        0.0863104941
 H          8.4417975030        0.8125526070       -1.3522786166
 H         10.5844204875        2.0145660979       -1.2988380163
 H         10.6212460906        4.4832011986       -1.2903506340
 H          8.4963233100        5.7393665722       -1.3240296998
 H          6.3533425718        4.5391202419       -1.3559095970
 H          5.0878346373        3.1760013207       -2.8367799025
 H          2.9186028594        2.0260046515       -2.9138747950
 H          2.1310022314       -0.2024986005       -3.9338571798
 H          0.0001850913       -0.0004584952       -5.1660627973
 H         -2.1306417565        0.2019390867       -3.9339692340
 H         -0.9539415633        2.4966295326       -0.3395648667
 H         -1.9354898214        4.0339300077        1.2972080692
 H         -6.2809801321        4.0920033550        1.4918616606
 H         -7.1970386624        5.6714787352        3.1360922575
 H         -5.7986282808        6.4577710137        5.0127093186
 H         -3.4801026023        5.6394535314        5.2385513000
 H         -2.5701151314        4.0426813419        3.6064838207
 H         -5.5847078380        1.7993070505        1.3566333232
 H         -6.5532240459       -0.4153114724        0.0858940627
 H         -8.4414297796       -0.8124129341       -1.3529275129
 H        -10.5841400392       -2.0142914800       -1.2997278000
 H        -10.6211217749       -4.4829219804       -1.2913535848
 H         -8.4962839142       -5.7392244849       -1.3249406393
 H         -6.3532154234       -4.5391109964       -1.3565825069
 H         -5.0874113992       -3.1759710242       -2.8371827388
 H         -2.9181656356       -2.0260153928       -2.9140191797
