  66
 
 C         -6.5010218749        3.9570099746       -0.6849097618
 C         -7.0922670037        2.7100057422       -0.0097132388
 C         -8.3806323188        2.3334852409       -0.7477315913
 C         -7.4534179325        3.0326430624        1.4485551177
 C         -6.0576220832        1.5968164935       -0.0291220064
 C         -6.2662969296        0.3684715342       -0.6509033761
 C         -5.3023274656       -0.6193453910       -0.6402915152
 C         -4.0683681635       -0.4291976587       -0.0098375549
 C         -3.0480139284       -1.4684929944        0.0072651463
 C         -3.4090467741       -2.8270960844        0.0476266190
 C         -2.4747071080       -3.8390028349        0.0794470378
 C         -1.1273626928       -3.4838291079        0.0604931376
 N         -0.0081422954       -4.2691454701        0.0780535631
 C          1.1091410947       -3.4929159989        0.0442934351
 C          2.4726688227       -3.8492136391        0.0494794381
 C          3.4025150458       -2.8571542191        0.0278489333
 C          3.0660098136       -1.4541232959       -0.0131872876
 C          4.0543070411       -0.4544709334       -0.0248935985
 C          5.4370385262       -0.7198307174        0.2586816885
 C          6.3837575467        0.2636693094        0.2672134184
 C          6.0735345666        1.6060448851       -0.0175240273
 C          7.0941645704        2.7228810556       -0.0158030509
 C          7.1597709006        3.3485647410       -1.4198379426
 C          6.6688823603        3.7956344717        1.0014972547
 C          8.4993511513        2.2419388030        0.3592584123
 C          4.7230032590        1.8840770951       -0.3170770780
 C          3.7596492362        0.9208764596       -0.3159296271
 C          1.6532742786       -1.1256604571       -0.0370393259
 C          0.7204067591       -2.1184722519       -0.0002195076
 C         -0.7320997057       -2.1202350387        0.0135464766
 C         -1.6797977225       -1.1257638031       -0.0087741195
 C         -3.8567099297        0.8087783571        0.6098891615
 C         -4.8262455631        1.7862897762        0.6008820222
 H         -7.2325089499        4.7626723913       -0.6902691527
 H         -6.2257267853        3.7329221681       -1.7139199080
 H         -5.6136671822        4.3064857053       -0.1641045104
 H         -9.0815736449        3.1648311139       -0.7004012325
 H         -8.1832018898        2.1201917950       -1.7959969330
 H         -8.8549551151        1.4678885540       -0.2904892410
 H         -7.8526078077        2.1482389701        1.9417319971
 H         -6.5841873000        3.3697641195        2.0067333811
 H         -8.2064312356        3.8175020997        1.4835987011
 H         -7.1938823283        0.1651396967       -1.1619708996
 H         -5.4985778196       -1.5470874587       -1.1583586967
 H         -4.4568373453       -3.0848660255        0.0858942100
 H         -2.7769300547       -4.8749344148        0.1242063895
 H         -0.0110492299       -5.2771581743        0.1106778501
 H          2.7653636923       -4.8891761708        0.0653717865
 H          4.4435572968       -3.1350718023        0.0075337385
 H          5.7422211927       -1.7221511975        0.5147446585
 H          7.3987380827       -0.0121149368        0.5076823693
 H          7.4542598497        2.5989426584       -2.1519068940
 H          7.8903303987        4.1549555898       -1.4360558751
 H          6.1964150233        3.7541301695       -1.7168937502
 H          5.7007205882        4.2192450076        0.7491153269
 H          6.6022472916        3.3628822840        1.9979766637
 H          7.3994253221        4.6019145748        1.0216942497
 H          8.8643664915        1.5051908601       -0.3529565469
 H          9.1862332744        3.0861968257        0.3512076570
 H          8.5105039182        1.8089921196        1.3572252623
 H          4.4341459450        2.8966193813       -0.5611216441
 H          2.7528776578        1.2023632885       -0.5811401841
 H          1.3386039983       -0.0961870718       -0.0446064679
 H         -1.3824571285       -0.0901474325       -0.0672838326
 H         -2.9293562131        0.9916055364        1.1334667420
 H         -4.6166656879        2.7193478631        1.1034735901
