  81
 
 N          2.6285086404        1.3793603955        3.1282078346
 C          3.1680678065        0.8672041890        2.2525861831
 C          3.7916378398        0.2933184460        1.1312623548
 C          5.1284086408        0.5783983989        0.7809856210
 C          6.0356605759        1.3293113085        1.6536138485
 C          6.9884993056        2.1648668064        1.0725154711
 C          7.8581362476        2.8866235242        1.8658494312
 C          7.7967193636        2.7720560186        3.2456689551
 C          6.8671994125        1.9266431029        3.8284064213
 C          5.9887072333        1.2070086946        3.0400469537
 N          5.6205575236        0.1818303900       -0.3821765477
 C          4.8368831445       -0.4994745020       -1.2120010347
 C          5.3881942887       -0.8816677611       -2.5102899641
 C          4.6046096419       -1.5838730385       -3.4252313681
 C          5.1276996674       -1.9404184045       -4.6526933362
 C          6.4322594646       -1.6023499479       -4.9782148994
 C          7.2164175250       -0.9064101134       -4.0710261951
 C          6.7002452591       -0.5460152546       -2.8417460211
 N          3.5896983499       -0.8694873527       -0.9353305729
 C          3.0618523095       -0.5002670675        0.2196033385
 C          1.6885977229       -0.9322252480        0.4898948287
 C          1.2915222054       -1.3443910236        1.7600522196
 C         -0.0126042453       -1.7329882598        1.9914904320
 C         -0.9436231218       -1.6982656491        0.9568464858
 N         -2.2727748503       -2.0719234686        1.1817396608
 C         -2.6614688763       -3.3411839180        1.5782418104
 C         -1.8940764763       -4.3886498846        2.0626666231
 C         -2.5400219972       -5.5709233802        2.3727677613
 C         -3.9136793492       -5.7157569339        2.1956287057
 C         -4.6772230870       -4.6842338279        1.6868637749
 C         -4.0504469480       -3.4861450980        1.3698869651
 C         -4.5130616881       -2.2481704524        0.8096698291
 C         -5.7744447004       -1.8367715458        0.3797223731
 C         -5.9318685699       -0.5805206195       -0.1583062628
 C         -4.8292993368        0.2735721516       -0.2021252911
 C         -3.5504823401       -0.0779578226        0.2948233105
 C         -2.7458471676        1.1132676384        0.2291920005
 C         -1.4716510469        1.4635138725        0.6679071223
 C         -1.0081965726        2.7417112577        0.4315362949
 C         -1.7894015478        3.6820612197       -0.2350137018
 C         -3.0769073267        3.3818506811       -0.6323341544
 C         -3.5593277472        2.1083593514       -0.3663693513
 N         -4.8071009963        1.5854280047       -0.6255883310
 C         -5.8868351747        2.2792395036       -1.1912769531
 C         -6.2830359521        3.5062162827       -0.6676476596
 C         -7.3442047363        4.1876961944       -1.2342417555
 C         -8.0230745563        3.6500764444       -2.3151584288
 C         -7.6341200010        2.4258468466       -2.8330918912
 C         -6.5676101347        1.7419152830       -2.2798457239
 C         -3.3883326198       -1.3976402587        0.7261039907
 C         -0.5430524097       -1.3115498225       -0.3219069288
 C          0.7637604551       -0.9427394597       -0.5533294720
 H          7.0231264242        2.2437009108       -0.0033158818
 H          8.5866998904        3.5401221581        1.4091714241
 H          8.4766604599        3.3366589477        3.8662348887
 H          6.8260365321        1.8252206126        4.9025178099
 H          5.2829327488        0.5342866811        3.5037798006
 H          3.5929034674       -1.8415181981       -3.1535225163
 H          4.5192893002       -2.4844681585       -5.3602365066
 H          6.8387145801       -1.8828359720       -5.9389466009
 H          8.2333283979       -0.6462719904       -4.3258724811
 H          7.2972649991       -0.0080949528       -2.1220261364
 H          2.0052496273       -1.3744910168        2.5697455140
 H         -0.3235218854       -2.0345913249        2.9800736420
 H         -0.8260110510       -4.2929415498        2.1869940248
 H         -1.9659686855       -6.4007036030        2.7579621343
 H         -4.3826375426       -6.6538749268        2.4531296534
 H         -5.7393767803       -4.8027748459        1.5343835496
 H         -6.6156861781       -2.5070954286        0.4633960320
 H         -6.8948977837       -0.2437289844       -0.5095762933
 H         -0.8541622574        0.7670508526        1.2089541551
 H         -0.0213792350        3.0162526783        0.7735207285
 H         -1.3899880807        4.6670485774       -0.4260518568
 H         -3.6912662590        4.1157129113       -1.1320735146
 H         -5.7651762630        3.9106711146        0.1891162792
 H         -7.6479347053        5.1393605220       -0.8238520192
 H         -8.8537383549        4.1833385868       -2.7522108607
 H         -8.1591012739        2.0042921567       -3.6775384848
 H         -6.2488693796        0.7958413472       -2.6916404875
 H         -1.2670323340       -1.2996290243       -1.1224531330
 H          1.0844735748       -0.6419059723       -1.5384966202
