  78
 
 C          0.8238085272        2.5492841320        2.0327875229
 C          1.6869108872        3.3598756798        1.0545465284
 C          2.9784789239        3.7768034848        1.7790035376
 C          0.9784749112        4.6607136247        0.6146232672
 C         -0.0173923742        4.5683600819       -0.5602974930
 C         -1.3445109607        3.9621126489       -0.1421344982
 C         -2.3424419682        4.7729793144        0.3874959365
 C         -3.5585302385        4.2380540553        0.7817209125
 C         -3.7962589628        2.8823804643        0.6629848819
 C         -2.8012861538        2.0578736573        0.1452998190
 C         -2.9942415698        0.6112748574        0.0510126929
 N         -1.9064594855       -0.1366512364       -0.1074364386
 C         -2.1041531623       -1.4501065132       -0.1589890668
 C         -0.9290934025       -2.3130383347       -0.2738543064
 C         -1.0823864750       -3.6784288496       -0.5069027200
 C          0.0292649713       -4.4934055383       -0.5963683349
 C          1.2983623880       -3.9558585421       -0.4453482583
 C          1.4558506678       -2.5989926053       -0.2102504329
 C          0.3493842242       -1.7760502968       -0.1303407926
 N         -3.3042752789       -2.0215842945       -0.1000791768
 C         -4.3368646637       -1.1972172049        0.0485709749
 C         -5.6772835445       -1.7800182837        0.1167794684
 C         -6.7969368103       -0.9532342359        0.1836091269
 C         -8.0611602109       -1.5059126499        0.2484511293
 C         -8.2189553676       -2.8832119193        0.2478973584
 C         -7.1079712693       -3.7097705732        0.1816942191
 C         -5.8409167189       -3.1637297795        0.1159360089
 N         -4.2274024815        0.1257197311        0.1456039456
 C         -1.5889502340        2.6041071201       -0.2649764411
 C          0.5780289672        3.8178072440       -1.7036950677
 C          1.5017750876        2.8387044077       -1.4314088254
 N          2.0461432937        1.9557346859       -2.3425147647
 C          2.8567243110        1.0744839766       -1.6928188967
 C          3.5818236943        0.0158003957       -2.2250968271
 C          4.3286981971       -0.7372877100       -1.3312722203
 C          4.3322843432       -0.4290565674        0.0707081780
 C          3.6120381438        0.6230149697        0.5866549185
 C          2.8602516091        1.4084624217       -0.3025353196
 C          2.0195213192        2.5360340507       -0.1524145519
 C          5.1751820711       -1.4122780300        0.7124412089
 C          5.5334765739       -1.6076605956        2.0315405048
 C          6.3741480906       -2.6652091535        2.3483498644
 C          6.8567642615       -3.5262629252        1.3609127923
 C          6.5131245901       -3.3535880171        0.0381450437
 C          5.6660107444       -2.2929388955       -0.3069369676
 C          5.1528866368       -1.8809677631       -1.5473895778
 H          0.6255796564        3.1332216928        2.9297800930
 H          1.3421146698        1.6380419975        2.3211784559
 H         -0.1247729579        2.2722804885        1.5838548358
 H          3.4690452827        2.9192342491        2.2275277755
 H          2.7481235394        4.4895776173        2.5685317984
 H          3.6747248584        4.2409214259        1.0835801762
 H          0.4645445237        5.0898763012        1.4771994258
 H          1.7541623727        5.3661420768        0.3053947311
 H         -0.2289929596        5.5972588969       -0.8791317670
 H         -2.1676775172        5.8350748914        0.4902224077
 H         -4.3222651905        4.8864481621        1.1858671836
 H         -4.7328557700        2.4462554578        0.9723896938
 H         -2.0782674292       -4.0785481397       -0.6167126375
 H         -0.0912014873       -5.5511964085       -0.7802349962
 H          2.1681123873       -4.5936287010       -0.5079220112
 H          2.4438067236       -2.1846319194       -0.0864424473
 H          0.4578723345       -0.7182204615        0.0529810984
 H         -6.6535047875        0.1159572652        0.1804694919
 H         -8.9285607775       -0.8640097380        0.2994882910
 H         -9.2088533612       -3.3129195293        0.2992211587
 H         -7.2336082267       -4.7827105159        0.1821169166
 H         -4.9642246122       -3.7902405746        0.0666973765
 H         -0.8450306875        1.9431250227       -0.6812299855
 H          0.1934152525        3.9777844660       -2.6979717981
 H          1.8308136314        1.9368692690       -3.3244598486
 H          3.5575740894       -0.2109515426       -3.2809425854
 H          3.6183024681        0.8260746276        1.6457741941
 H          5.1678529587       -0.9506800503        2.8075927895
 H          6.6625592478       -2.8282652159        3.3767311502
 H          7.5097053495       -4.3389180535        1.6453283298
 H          6.8869842755       -4.0206786685       -0.7253404898
 H          5.3396153721       -2.3442853163       -2.4989421126
