  76
 
 C         -0.0682214517       -6.6280503633       -1.7201638305
 C          1.1349333244       -5.9422802443       -1.6534814921
 C          1.1511964560       -4.6005360219       -1.3238511185
 C         -0.0412791031       -3.9295554283       -1.0569122788
 C         -0.0265301198       -2.5080648827       -0.7006326205
 N         -1.1979344400       -1.9026588391       -0.5317636340
 C         -1.1953158369       -0.6128193144       -0.2038671933
 C         -2.5093879424        0.0198135882       -0.0165647671
 C         -2.6975659577        1.3816749758       -0.2284171802
 C         -3.9518873359        1.9569063853       -0.0522784280
 C         -4.1495218086        3.3945995801       -0.2955574110
 C         -5.2823325434        3.8678586208       -0.9566205210
 C         -5.4150465198        5.2308174837       -1.1623102131
 N         -4.5227693832        6.1226051718       -0.7619881148
 C         -3.4478903976        5.6765582473       -0.1319232752
 C         -3.2112787330        4.3365898256        0.1249305059
 C         -5.0175324103        1.1588266934        0.3511110193
 C         -4.8456655683       -0.2056321596        0.5634893196
 C         -5.9802130866       -1.0437025777        0.9819166484
 C         -6.1789678024       -2.3116044095        0.4367737875
 C         -7.2649636115       -3.0580649893        0.8617361432
 N         -8.1342137229       -2.6372889207        1.7669160209
 C         -7.9463149029       -1.4350869174        2.2872598926
 C         -6.8978298665       -0.6020289466        1.9342073583
 C         -3.5898366169       -0.7681697486        0.3688712193
 C          0.0019898390        0.0811899318       -0.0323658593
 C          1.1833946930       -0.6311500043       -0.2345972787
 C          2.5118183358       -0.0215319759       -0.0729072223
 C          2.7224449579        1.3351837215       -0.2953706835
 C          3.9857846568        1.8910242965       -0.1215125287
 C          4.2059214382        3.3265207402       -0.3597417423
 C          3.6283218957        3.9790043686       -1.4482952901
 C          3.8694736968        5.3316771572       -1.6214494221
 N          4.6207541746        6.0524140996       -0.8045075932
 C          5.1698242726        5.4358359375        0.2299287520
 C          5.0000505017        4.0878733306        0.4971085848
 C          5.0393622373        1.0767444483        0.2815354110
 C          4.8482818916       -0.2860663080        0.4888991957
 C          5.9719198615       -1.1428874403        0.8983257422
 C          6.1430607893       -2.4169226139        0.3582699796
 C          7.2185937200       -3.1810997152        0.7785033420
 N          8.1025868987       -2.7722412594        1.6747833595
 C          7.9408798555       -1.5642880676        2.1905975237
 C          6.9051728300       -0.7140879852        1.8413642000
 C          3.5817144822       -0.8276483823        0.3043761936
 N          1.1579499155       -1.9194950874       -0.5669268654
 C         -1.2476498833       -4.6241822621       -1.1308487875
 C         -1.2582439059       -5.9662197432       -1.4592778025
 H         -0.0786264996       -7.6772718847       -1.9764955268
 H          2.0619022417       -6.4568599548       -1.8601840883
 H          2.0785042786       -4.0518309061       -1.2719725213
 H         -1.8803401084        1.9954895093       -0.5759200614
 H         -6.0342065153        3.1846602531       -1.3204171399
 H         -6.2789421695        5.6352049989       -1.6744393676
 H         -2.7438603345        6.4370852690        0.1817796548
 H         -2.3246231995        4.0320100512        0.6595065914
 H         -5.9908469777        1.6034074886        0.4955244462
 H         -5.5103895036       -2.6969957337       -0.3171687418
 H         -7.4549317960       -4.0449345620        0.4590181137
 H         -8.6771580529       -1.1286449344        3.0249911782
 H         -6.7850903976        0.3627998580        2.4043623068
 H         -3.4259185066       -1.8206421906        0.5396155981
 H          0.0148650322        1.1095389267        0.2863660288
 H          1.9054849534        1.9681269655       -0.6074484341
 H          3.0199228179        3.4384058270       -2.1570243625
 H          3.4408730788        5.8714337035       -2.4565049958
 H          5.7754517431        6.0597593220        0.8749789705
 H          5.4592093342        3.6417986674        1.3656729904
 H          6.0269576691        1.4995611321        0.3902264041
 H          5.4611926824       -2.7943982912       -0.3876794832
 H          7.3870245625       -4.1733616498        0.3794551995
 H          8.6826979238       -1.2679853675        2.9214893799
 H          6.8138479088        0.2543827209        2.3083600985
 H          3.4009607115       -1.8769664885        0.4782229565
 H         -2.1650635218       -4.0943600491       -0.9281986699
 H         -2.1959361284       -6.4997646768       -1.5128865702
