  55
 
 O          7.1330861001       -1.4943712311       -0.4171952194
 C          6.0717681819       -0.9395910215       -0.1615179417
 C          6.0113706396        0.4956510185        0.1901593286
 C          7.1970987242        1.2240172741        0.2452316238
 C          7.1876919788        2.5685913587        0.5722606840
 C          5.9870107233        3.2054194038        0.8499676333
 C          4.8014744626        2.4946107072        0.7975961827
 C          4.7971818639        1.1400091448        0.4698991328
 C          3.5093062661        0.4228246962        0.4240390616
 O          2.4445183838        0.9851926734        0.6332677394
 C          3.5761314768       -1.0193155504        0.1034467696
 C          2.3902922694       -1.7408341607        0.0842612027
 C          2.3904121183       -3.0947479217       -0.2263733998
 S          0.9282815224       -4.0715703926       -0.2465822670
 C         -0.3704144847       -2.8452828883       -0.2130340944
 C         -1.2773893713       -2.8462731190        0.8360011257
 C         -2.2966724409       -1.9139421397        0.8608819151
 C         -2.4165025789       -0.9787905626       -0.1657342665
 N         -3.4393465037       -0.0262287684       -0.1362275557
 C         -4.7820183926       -0.2834023393        0.0738315026
 C         -5.4345360891       -1.4963471898        0.2424860050
 C         -6.8068398754       -1.4739038170        0.4071871367
 C         -7.5215685575       -0.2779865093        0.3952432169
 C         -6.8807239255        0.9297660004        0.2008607184
 C         -5.5017701474        0.9325794491        0.0336309218
 C         -4.5377046775        1.9715380863       -0.2041591195
 C         -4.6318823415        3.3527291160       -0.3190492407
 C         -3.4759074728        4.0799544639       -0.5236758442
 C         -2.2361197984        3.4482826521       -0.5958076536
 C         -2.1170405107        2.0755134012       -0.4848406572
 C         -3.2784194439        1.3374167727       -0.3060657716
 C         -1.5094875272       -0.9989242472       -1.2251462932
 C         -0.4934315282       -1.9326795603       -1.2522625418
 C          3.5999308740       -3.7369830982       -0.5038816781
 C          4.7782635631       -3.0256487333       -0.4777288214
 C          4.7916049741       -1.6604919326       -0.1793552980
 H          8.1209539633        0.7089140186        0.0255006442
 H          8.1155417655        3.1189063549        0.6108885974
 H          5.9752997163        4.2540357525        1.1058776438
 H          3.8548382149        2.9702427063        1.0093666387
 H          1.4758225510       -1.2174915694        0.3214647686
 H         -1.1742360244       -3.5654874707        1.6338204197
 H         -2.9903291910       -1.8917577065        1.6872699440
 H         -4.8939353797       -2.4307158948        0.2348616845
 H         -7.3369328248       -2.4051348623        0.5443307426
 H         -8.5930181244       -0.3014305560        0.5301484698
 H         -7.4367737572        1.8549513303        0.1743401922
 H         -5.5905839269        3.8437990714       -0.2443004158
 H         -3.5270296482        5.1548046384       -0.6180461715
 H         -1.3457705396        4.0434662357       -0.7374118221
 H         -1.1473739208        1.6021550629       -0.5199099390
 H         -1.6163073120       -0.2921128890       -2.0336609632
 H          0.2043004714       -1.9544255251       -2.0759907244
 H          3.5978851479       -4.7906055103       -0.7375976132
 H          5.7199993638       -3.5088932219       -0.6925663335
