  116
 
 B          4.3523168514       -0.4439626949       -0.2282150867
 C          4.6591721169        0.9650443384       -0.7868371782
 C          3.5893730998        1.6735482106       -1.3769930646
 C          3.7828647606        2.9341199382       -1.9354701013
 C          5.0272849314        3.5296882047       -1.9026506486
 C          6.1090667897        2.8865631243       -1.2956994133
 C          5.8926710136        1.6301760027       -0.7516359386
 C          7.4619009558        3.5796265515       -1.2598265854
 C          8.5438606631        2.7414337045       -0.5727432985
 C          7.9192750501        3.8596916965       -2.6986097587
 C          7.3235830163        4.9026862216       -0.4927523889
 O          2.3043265501        1.2177334655       -1.4475132314
 C          1.9290631873        0.0551063145       -0.8610869907
 C          0.5776091560       -0.2509336338       -0.8863240754
 C          0.1244601194       -1.4207383682       -0.2651164913
 C          1.0378564224       -2.2950697107        0.3341442427
 C          2.3897526143       -1.9809475938        0.3203447774
 C          2.8761032512       -0.7952418934       -0.2593038373
 O          3.2276886479       -2.8638151799        0.9210205520
 C          4.5821141477       -2.6893166998        0.9085103788
 C          5.2389959361       -1.5659258914        0.3583446294
 C          6.6407507908       -1.6010504121        0.3821831049
 C          7.3785235791       -2.6298337499        0.9450808542
 C          6.6801661768       -3.6990988117        1.5131230782
 C          5.3009370957       -3.7317967038        1.4868746037
 C          8.8986999050       -2.6385127224        0.9688796302
 C          9.3768270013       -2.6976350542        2.4268658986
 C          9.5125098974       -1.3955245782        0.3181389232
 C          9.4012323764       -3.8737702551        0.2076288257
 N         -1.2464108955       -1.7000929425       -0.2311941630
 C         -1.8113503879       -2.8250058136       -0.8049721613
 C         -1.1701511307       -3.9356889183       -1.3263062544
 C         -1.9468131050       -4.9078411346       -1.9325840376
 C         -3.3220675651       -4.7453611354       -2.0500515937
 C         -3.9626866133       -3.6254596879       -1.5515716722
 C         -3.2156559960       -2.6577789802       -0.8856438835
 C         -3.5025862945       -1.3743014681       -0.3029141928
 C         -4.6523603203       -0.6169966761       -0.0748362078
 C         -4.5758204930        0.7656000337        0.2987517865
 C         -3.3045256808        1.3139835259        0.5428090593
 C         -2.1572589457        0.4850638113        0.6117343930
 C         -2.2444585078       -0.8163937445        0.0740747691
 C         -1.1118937874        1.2811551415        1.1725221380
 C          0.1739670939        1.0206889847        1.6531904702
 C          0.9493736441        2.0747558538        2.0842473347
 C          0.4709329083        3.3857688713        2.0587017682
 C         -0.8261509186        3.6623108832        1.6734893908
 C         -1.6258942568        2.6013374045        1.2744907130
 N         -2.9510737678        2.6016422313        0.8951033611
 C         -3.6730819131        3.7686960557        0.6051723871
 C         -4.2229581317        3.9417593636       -0.6631062293
 C         -4.9150894570        5.0994936099       -0.9607861831
 C         -5.0555584842        6.0942921326       -0.0060616991
 C         -4.5060109229        5.9244056575        1.2544507184
 C         -3.8170287925        4.7663875923        1.5656347989
 C         -5.9235465403        1.2253713752        0.4320950876
 C         -6.5241742848        2.4095127353        0.8684369444
 C         -7.9017010867        2.4859612212        0.9237868024
 C         -8.7031234659        1.4019099668        0.5853789160
 C         -8.1369011032        0.1977062274        0.1941045240
 C         -6.7590830456        0.1237672664        0.1152408060
 N         -5.9733002942       -0.9752356187       -0.1883477152
 C         -6.4839361679       -2.2831133042       -0.2178201230
 C         -7.4663187153       -2.6309898309       -1.1408897252
 C         -7.9842603999       -3.9131594921       -1.1421001668
 C         -7.5288853413       -4.8519071797       -0.2303057248
 C         -6.5510710668       -4.5049409419        0.6886228374
 C         -6.0308928224       -3.2253926642        0.7023347024
 H          2.9382256492        3.4354320676       -2.3835898626
 H          5.1444313467        4.5069420420       -2.3449049472
 H          6.7035344266        1.1239921493       -0.2600106303
 H          8.2822002493        2.5372381385        0.4629373840
 H          9.4846775476        3.2887558360       -0.5793324783
 H          8.7002879121        1.8004111687       -1.0948806557
 H          7.2199668818        4.5088505078       -3.2179140246
 H          7.9967517850        2.9279874119       -3.2551980199
 H          8.8944271805        4.3427543609       -2.6951834318
 H          8.2841730862        5.4120062732       -0.4463402810
 H          6.9829941305        4.7129915940        0.5230977126
 H          6.6091504361        5.5655918216       -0.9727787146
 H         -0.1153479427        0.4155008072       -1.3738602504
 H          0.6985837741       -3.1847378248        0.8411767094
 H          7.1543408223       -0.7777232855       -0.0800712700
 H          7.2080941010       -4.5218125605        1.9698864027
 H          4.7572957833       -4.5653388448        1.9055702384
 H         10.4643437093       -2.6895584014        2.4656819490
 H          9.0046260420       -1.8368257117        2.9785680519
 H          9.0256650063       -3.5977279925        2.9234855226
 H         10.5979663489       -1.4601642675        0.3663498695
 H          9.2075070132       -0.4903659865        0.8380731188
 H          9.2274185808       -1.3205735492       -0.7287152786
 H          9.0450598166       -4.7926489423        0.6648844987
 H          9.0506577963       -3.8475704646       -0.8220963826
 H         10.4892709291       -3.8946611986        0.2023722689
 H         -0.0966240996       -4.0302326721       -1.2811958167
 H         -1.4745554975       -5.7880688252       -2.3415629821
 H         -3.9036211481       -5.5007222844       -2.5574040361
 H         -5.0205126295       -3.5071426983       -1.7090988371
 H          0.5501365139        0.0139937698        1.7165320897
 H          1.9497126848        1.8846835516        2.4431554718
 H          1.1168668656        4.1928612022        2.3694590353
 H         -1.2022751934        4.6737217255        1.6822234967
 H         -4.1061538463        3.1630430402       -1.4016494812
 H         -5.3422712276        5.2290036134       -1.9437248484
 H         -5.5947830798        6.9988603050       -0.2425971565
 H         -4.6212596978        6.6941689406        2.0030579667
 H         -3.4134256281        4.6159658750        2.5556673740
 H         -5.9345290252        3.2519235447        1.1827758931
 H         -8.3646065181        3.4046720423        1.2521632232
 H         -9.7772539502        1.4882908554        0.6476858803
 H         -8.7566614030       -0.6590330551       -0.0204744867
 H         -7.7992425027       -1.9024808680       -1.8652338900
 H         -8.7417246060       -4.1824608320       -1.8632707427
 H         -7.9342283188       -5.8522144622       -0.2373177978
 H         -6.1956877658       -5.2337651495        1.4012865084
 H         -5.2723898421       -2.9456297497        1.4176078936
