115

O    -11.485350   -2.228118    1.342460
P    -10.182260   -2.188815    0.555613
C     -9.713600   -3.848449    0.015539
C    -10.630921   -4.900561    0.164897
C    -10.305181   -6.195814   -0.239141
C     -9.056898   -6.456914   -0.798406
C     -8.135387   -5.423989   -0.954456
C     -8.460769   -4.127505   -0.550299
C    -10.372685   -1.113877   -0.878259
C    -10.594674    0.258359   -0.672124
C    -10.744296    1.129186   -1.752154
C    -10.686640    0.638325   -3.054190
C    -10.488370   -0.722598   -3.275555
C    -10.337578   -1.594830   -2.194811
C     -8.864231   -1.590784    1.586748
C     -8.921790   -1.680576    2.990014
C     -7.886209   -1.212147    3.800354
C     -6.744885   -0.629952    3.237537
C     -6.657298   -0.523757    1.836965
C     -7.710855   -1.005980    1.063907
O     -7.439619   -0.822831   -0.257961
C     -6.230650   -0.209188   -0.345425
C     -5.604273    0.166900   -1.528034
C     -4.355021    0.789052   -1.401173
C     -3.754271    1.022592   -0.149015
C     -2.439174    1.681957   -0.055015
C     -1.343413    1.229313   -0.801395
C     -0.095003    1.857597   -0.710693
C      0.117095    2.952284    0.149907
C      1.502540    3.660979    0.214365
C      2.717922    2.690458    0.125040
C      3.895534    3.025336   -0.566905
C      4.988822    2.150076   -0.611081
C      4.958778    0.915440    0.050139
C      6.105694   -0.004250   -0.002263
C      6.704636   -0.482147    1.174220
C      7.788035   -1.365983    1.127499
C      8.295156   -1.787380   -0.105638
N      9.396712   -2.693657   -0.156744
C      9.542638   -3.832496    0.640298
C      8.689369   -4.424867    1.596013
C      9.101359   -5.597146    2.236411
C     10.320099   -6.185624    1.927464
C     11.147380   -5.620977    0.953815
C     10.751540   -4.438510    0.289625
C     11.342329   -3.663474   -0.750395
C     12.541307   -3.793629   -1.486229
C     12.881037   -2.835558   -2.443836
C     12.051626   -1.745161   -2.666224
C     10.858805   -1.595111   -1.952406
C     10.495845   -2.583375   -1.012657
C      7.714566   -1.317090   -1.287399
C      6.630143   -0.434938   -1.231430
C      3.801655    0.588570    0.768574
C      2.707502    1.460802    0.812864
C      1.517796    4.771902   -0.876320
C      1.382937    4.634709   -2.255337
C      1.430326    5.783639   -3.046696
C      1.608222    7.047282   -2.463714
C      1.740352    7.184029   -1.078845
C      1.693269    6.044405   -0.289974
C      1.797553    5.901487    1.144290
C      1.970449    6.865227    2.126462
C      2.035231    6.458111    3.462142
C      1.927056    5.102295    3.805334
C      1.752575    4.130095    2.819032
C      1.688547    4.536457    1.488775
C     -0.994324    3.420650    0.872489
C     -2.243129    2.792537    0.777156
C     -4.436951    0.617919    1.019153
C     -5.696985   -0.004881    0.918589
H    -11.609630   -4.706220    0.602458
H    -11.026926   -6.999483   -0.116313
H     -8.802253   -7.465894   -1.112009
H     -7.160617   -5.627736   -1.390802
H     -7.727247   -3.338324   -0.690057
H    -10.652921    0.649853    0.341803
H    -10.909860    2.188651   -1.576028
H    -10.805789    1.315112   -3.896271
H    -10.456322   -1.108285   -4.291473
H    -10.199528   -2.653671   -2.396917
H     -9.803282   -2.124684    3.453914
H     -7.968958   -1.298006    4.882028
H     -5.944313   -0.265545    3.874516
H     -6.066646   -0.004883   -2.492405
H     -3.848529    1.111670   -2.310343
H     -1.448145    0.371445   -1.462843
H      0.717021    1.473242   -1.325982
H      3.995346    3.982045   -1.075512
H      5.880249    2.455681   -1.156264
H      6.339410   -0.150569    2.144597
H      8.246159   -1.677644    2.063551
H      7.716982   -4.002991    1.830660
H      8.453257   -6.057479    2.978770
H     10.626750   -7.097542    2.432781
H     12.089668   -6.099257    0.701274
H     13.205746   -4.633311   -1.302972
H     13.806630   -2.938101   -3.004308
H     12.335878   -0.991455   -3.397395
H     10.245364   -0.715264   -2.119863
H      8.056990   -1.659582   -2.260877
H      6.178437   -0.098950   -2.163158
H      3.737148   -0.359629    1.298845
H      1.837460    1.161474    1.395208
H      1.246997    3.660527   -2.713297
H      1.326876    5.699727   -4.126042
H      1.641198    7.930797   -3.097035
H      1.874730    8.167221   -0.640481
H      2.055824    7.916952    1.874518
H      2.172760    7.200476    4.244968
H      1.981999    4.806645    4.850464
H      1.667377    3.083953    3.093298
H     -0.917298    4.296533    1.513801
H     -3.073536    3.200051    1.351044
H     -3.994200    0.777414    1.998659
