  121
 
 C         -8.2172416638       -3.5865691083       -0.7112209268
 C         -6.9521190357       -4.3783300889       -0.3327298348
 C         -7.3177769561       -5.8306133111        0.0244329245
 C         -6.0164139483       -4.3894670238       -1.5256917492
 C         -6.4495649898       -4.9362602032       -2.7262131570
 C         -5.6566909882       -4.9445055716       -3.8582626671
 C         -4.3991359512       -4.3714392783       -3.8052909476
 C         -3.9434183876       -3.8234574988       -2.6250178957
 C         -4.7291189988       -3.8466520038       -1.4687298518
 N         -4.2366700317       -3.2978892674       -0.2916089442
 C         -2.8995469114       -2.8333149586       -0.2603345413
 C         -1.8441589700       -3.7457939621       -0.3336067530
 C         -0.5515017826       -3.2850372153       -0.2980226960
 C         -0.2792486957       -1.9178525679       -0.1830028623
 C         -1.3341978005       -0.9863275332       -0.1035953162
 C         -2.6411158168       -1.4776752262       -0.1526598245
 C         -1.0401372462        0.4350955304        0.0182383663
 C         -2.0454232409        1.4012512445        0.1071495791
 C         -1.7451326913        2.7483381998        0.2137092374
 N         -2.7885615946        3.7024979116        0.2869473869
 C         -3.5563982366        3.9598117288       -0.8420271034
 C         -3.3037919946        3.2673946996       -2.0301887265
 C         -4.0591523220        3.4944650713       -3.1611675303
 C         -5.0781682671        4.4288136624       -3.1330696786
 C         -5.3087892479        5.1386214519       -1.9698759877
 C         -4.5634869053        4.9303057103       -0.8170000107
 C         -4.8443957967        5.7766246779        0.4096328419
 C         -6.3064583983        5.5589674783        0.8404423483
 C         -4.6086521902        7.2543177588        0.0472340126
 C         -3.9406196305        5.4082613358        1.5698921209
 C         -4.0764193577        6.0779157860        2.7786139718
 C         -3.3069244389        5.7639857557        3.8829472601
 C         -2.3862042897        4.7359180737        3.7934010078
 C         -2.2291581732        4.0564538218        2.6040113418
 C         -2.9798853959        4.3968875205        1.4746555459
 C         -0.4137145534        3.1705355919        0.2453246335
 C          0.5909288408        2.2380389877        0.1707093065
 C          0.2985041042        0.8749235796        0.0566407474
 C          1.3819959117       -0.0763685773       -0.0206306528
 N          2.6254405107        0.3637283567        0.0288886652
 C          3.6139837393       -0.5365640885       -0.0501056915
 C          4.9566842313       -0.1092743704       -0.0038313599
 C          5.9778349753       -1.0178723443       -0.0891374573
 N          7.3294326565       -0.6110057183       -0.0382210806
 C          8.0452092643       -0.5515750836       -1.2277786011
 C          7.3680768416       -0.6831765612       -2.4423425982
 C          8.0496430650       -0.6390563742       -3.6403324781
 C          9.4200252009       -0.4553553961       -3.6437201804
 C         10.0875613472       -0.3071947908       -2.4420877352
 C          9.4265091187       -0.3460454404       -1.2222011030
 C         10.2116429997       -0.1822361371        0.0645431401
 C         11.2054193401       -1.3527032774        0.1770215506
 C         10.9632410145        1.1602259743        0.0194326049
 C          9.3128925200       -0.2009029541        1.2863880985
 C          9.8681357381       -0.0246450866        2.5465099578
 C          9.1039844567       -0.0605649334        3.6979354528
 C          7.7435935593       -0.2872303053        3.6007593857
 C          7.1656926691       -0.4684809602        2.3617004125
 C          7.9357845624       -0.4212968420        1.1976856059
 C          5.6730697568       -2.3978294464       -0.2232467616
 Br         7.1188996883       -3.6268546416       -0.3053352654
 C          4.3872555252       -2.8514799321       -0.2728762133
 C          3.3252479125       -1.9271339264       -0.1874394243
 N          2.0603336825       -2.3654164958       -0.2292699938
 C          1.0932642966       -1.4710268262       -0.1456170740
 C         -5.0032348016       -3.2419479852        0.8657191920
 C         -4.4538396387       -2.7218929608        2.0415950209
 C         -5.1965696959       -2.6435573879        3.2006680095
 C         -6.5036971135       -3.0946299621        3.2132298796
 C         -7.0391041004       -3.6392216825        2.0613489970
 C         -6.3137749199       -3.7306937011        0.8808825311
 H         -7.9501625442       -2.5627140611       -0.9665825372
 H         -8.7145441285       -4.0343293903       -1.5670042093
 H         -8.9216184487       -3.5611313090        0.1155086456
 H         -8.0058897250       -5.8629019110        0.8645510377
 H         -6.4194656035       -6.3822963291        0.2955616643
 H         -7.7861781675       -6.3311763859       -0.8184379529
 H         -7.4365557145       -5.3692848317       -2.7858202545
 H         -6.0229642514       -5.3825757267       -4.7740305643
 H         -3.7706416683       -4.3455610258       -4.6828930860
 H         -2.9669789606       -3.3647073448       -2.5995133667
 H         -2.0588429208       -4.8003568600       -0.4177928322
 H          0.2855894673       -3.9627837551       -0.3498290798
 H         -3.4867825511       -0.8102440990       -0.1051585704
 H         -3.0866600494        1.1211287182        0.0928643431
 H         -2.4995595375        2.5492807022       -2.0720707133
 H         -3.8454195570        2.9424555464       -4.0642456621
 H         -5.6793277718        4.6135071521       -4.0100913382
 H         -6.0928961215        5.8804529603       -1.9667821080
 H         -6.5507731177        6.1661208887        1.7075101244
 H         -6.4642326796        4.5133122143        1.0983265055
 H         -6.9911258507        5.8215186861        0.0388619064
 H         -3.5747723111        7.3992671747       -0.2608854531
 H         -4.8060051969        7.8988580208        0.8993204715
 H         -5.2555463007        7.5621700001       -0.7695400953
 H         -4.8051147734        6.8693645392        2.8670560941
 H         -3.4349094217        6.3083990065        4.8059471640
 H         -1.7902543141        4.4570408215        4.6495165592
 H         -1.5191449981        3.2455802239        2.5502438316
 H         -0.1925982278        4.2238253905        0.3291105185
 H          1.6285848786        2.5306855263        0.1904741776
 H          5.1663855500        0.9438470434        0.1015635180
 H          6.2962899443       -0.8190933506       -2.4471668658
 H          7.5074016386       -0.7483085046       -4.5676079228
 H          9.9663249696       -0.4250030992       -4.5739803017
 H         11.1571436052       -0.1636136082       -2.4614585870
 H         11.8820179074       -1.3677629597       -0.6731179322
 H         10.6624932847       -2.2958043668        0.2006334292
 H         11.7965776217       -1.2733277804        1.0853171242
 H         11.5563285625        1.3050166834        0.9178280012
 H         11.6315132570        1.2037930202       -0.8357355193
 H         10.2516942405        1.9803265402       -0.0585179872
 H         10.9309909244        0.1389213895        2.6391813744
 H          9.5691343233        0.0798613436        4.6616295800
 H          7.1285160422       -0.3277693531        4.4872800889
 H          6.1037756989       -0.6526979018        2.2964065591
 H          4.1564458113       -3.9005787640       -0.3681542284
 H         -3.4292861068       -2.3835714245        2.0511703504
 H         -4.7488684879       -2.2334918991        4.0936170576
 H         -7.0971868819       -3.0356630485        4.1126589375
 H         -8.0535716977       -4.0069464036        2.0894766424
