  94
 
 N          0.0015526094        3.4023156998       -2.0239556420
 C          0.0010313350        2.4383431863       -1.3805523818
 C          0.0007066306        1.2821486513       -0.6179356343
 C         -1.2300297234        0.6226504851       -0.2998484286
 N         -2.4350257911        1.2422729941       -0.6520960290
 C         -2.8566432472        2.4831442168       -0.2190943108
 C         -2.2034370869        3.4066126528        0.5855222861
 C         -2.8727829893        4.5720263434        0.9072615608
 C         -4.1677012612        4.8108288671        0.4549668873
 C         -4.8332279842        3.8833218107       -0.3280765828
 C         -4.1780340981        2.7106140164       -0.6682715360
 C         -4.5570666597        1.5479863863       -1.4283898506
 C         -5.7031751871        1.1884700524       -2.1194770961
 C         -5.7194513923       -0.0227095810       -2.7906385475
 C         -4.6020277411       -0.8517484324       -2.8033705415
 C         -3.4481336079       -0.5127535269       -2.1204518081
 C         -3.4463858080        0.6746395301       -1.4031723298
 C         -1.2305640803       -0.6207487122        0.3009143082
 N         -2.4360554822       -1.2386030059        0.6546277008
 C         -3.4454582892       -0.6695516293        1.4072476335
 C         -3.4443269515        0.5177282986        2.1247166858
 C         -4.5966901377        0.8583645447        2.8093995712
 C         -5.7154075786        0.0310396923        2.7981523218
 C         -5.7020806181       -1.1799247769        2.1265329771
 C         -4.5575496622       -1.5410665441        1.4336671321
 C         -4.1814811718       -2.7040254518        0.6725895720
 C         -4.8391909702       -3.8753660684        0.3325503897
 C         -4.1764272265       -4.8034803605       -0.4521170156
 C         -2.8816796107       -4.5667149292       -0.9059818815
 C         -2.2097852392       -3.4027580740       -0.5842884337
 C         -2.8603423000       -2.4785687745        0.2216599522
 C         -0.0004423632       -1.2820531030        0.6175735141
 C         -0.0010795679       -2.4383085640        1.3801114369
 N         -0.0018088026       -3.4023559174        2.0234473593
 C          1.2303211285       -0.6225723252        0.2994621263
 N          2.4352174538       -1.2424624544        0.6515029566
 C          2.8562767136       -2.4835277119        0.2184339483
 C          2.2025044616       -3.4068911166       -0.5858622598
 C          2.8713978316       -4.5725351556       -0.9077231359
 C          4.1663829496       -4.8116983946       -0.4558145208
 C          4.8324720510       -3.8842858159        0.3268494074
 C          4.1777736536       -2.7113297284        0.6671063873
 C          4.5575970762       -1.5486203879        1.4266938081
 C          5.7042697953       -1.1892237056        2.1169135004
 C          5.7213588529        0.0221637023        2.7876709476
 C          4.6041564933        0.8514939398        2.8009255976
 C          3.4497020840        0.5125978099        2.1189037251
 C          3.4471585241       -0.6749674217        1.4019126319
 C          1.2308559866        0.6208752094       -0.3012352633
 N          2.4362436416        1.2389310748       -0.6548326634
 C          2.8599814594        2.4791782116       -0.2220690042
 C          2.2088805774        3.4034231780        0.5833869846
 C          2.8802810590        4.5677320018        0.9048538673
 C          4.1750649441        4.8048037607        0.4512581459
 C          4.8384012621        3.8766006074       -0.3328157709
 C          4.1812184055        2.7048853891       -0.6725620857
 C          4.5580307988        1.5416997838       -1.4329144086
 C          5.7031224769        1.1805219455       -2.1248194180
 C          5.7171979975       -0.0307114753       -2.7959326587
 C          4.5986413611       -0.8582453350       -2.8076788522
 C          3.4457615754       -0.5176192294       -2.1238604875
 C          3.4461688905        0.6698985233       -1.4067693734
 H         -1.2028638373        3.2273569086        0.9479227679
 H         -2.3809331633        5.3089064084        1.5241458904
 H         -4.6586881627        5.7332091126        0.7256827674
 H         -5.8420825959        4.0647098129       -0.6647956980
 H         -6.5601368250        1.8436114936       -2.1380466551
 H         -6.6049343012       -0.3228956652       -3.3298612084
 H         -4.6309272017       -1.7762990250       -3.3596712457
 H         -2.5754758028       -1.1465884294       -2.1598484815
 H         -2.5706835338        1.1502941204        2.1627915162
 H         -4.6233780420        1.7828937196        3.3658524209
 H         -6.5995538841        0.3323779995        3.3389321387
 H         -6.5599927230       -1.8337887129        2.1463482325
 H         -5.8480459057       -4.0550054523        0.6702047151
 H         -4.6695276918       -5.7246843404       -0.7229961977
 H         -2.3918816970       -5.3041837581       -1.5238012733
 H         -1.2092800047       -3.2251489851       -0.9477053603
 H          1.2017895105       -3.2274909569       -0.9478112989
 H          2.3790287563       -5.3094282462       -1.5241791635
 H          4.6570132949       -5.7342385567       -0.7266209791
 H          5.8415134778       -4.0657487415        0.6629558347
 H          6.5610761481       -1.8445796703        2.1350530422
 H          6.6072751225        0.3222496398        3.3262395148
 H          4.6336426351        1.7761729258        3.3569835672
 H          2.5772396644        1.1466681132        2.1587474996
 H          1.2083216373        3.2256443128        0.9465735671
 H          2.3899634555        5.3053447072        1.5220909223
 H          4.6676736554        5.7263861069        0.7217420858
 H          5.8473336549        4.0563918957       -0.6701574790
 H          6.5608949647        1.8345747311       -2.1442684404
 H          6.6018382563       -0.3321374821       -3.3358559144
 H          4.6259338464       -1.7830317159       -3.3636781641
 H          2.5722652176       -1.1503593905       -2.1623812860
