  111
 
 N         -0.8219552111        3.8827780874       -0.0052819798
 C         -0.5813274940        2.7521171768       -0.0054363558
 C         -0.2915416084        1.3898682831       -0.0053702108
 C          1.0589956309        0.9433521674       -0.0115512590
 C          2.1460617420        1.9263841448        0.0097933764
 C          2.1773302280        2.9355058421        0.9723913816
 C          3.2058813367        3.8496805045        1.0008019340
 C          4.2298657514        3.7910054852        0.0526407052
 N          5.2707789817        4.7219480560        0.0763223237
 C          5.0108023825        6.0463519941        0.4417707186
 C          5.9403583437        6.7686909741        1.1915787334
 C          5.6776518301        8.0764182512        1.5490617062
 C          4.4891029629        8.6817077207        1.1729775737
 C          3.5612804522        7.9672145169        0.4318176995
 C          3.8157324729        6.6609485137        0.0638900375
 C          6.5686174485        4.3272563069       -0.2605399341
 C          7.4140758053        5.1964653882       -0.9521309462
 C          8.6962194714        4.8028679909       -1.2807696859
 C          9.1539051013        3.5416428611       -0.9339419427
 C          8.3167904462        2.6734946536       -0.2510717746
 C          7.0348799045        3.0583653133        0.0882632374
 C          4.1963701753        2.7888079004       -0.9192308807
 C          3.1725399683        1.8687992237       -0.9335406565
 C          1.3404514958       -0.4136435900       -0.0182041585
 C          2.6855934391       -0.7883178013        0.1615622734
 N          3.7859221826       -1.0561034341        0.3687532805
 C          0.3036447098       -1.4074699405       -0.0042400740
 C          0.6002142289       -2.8037208490       -0.0020319737
 C         -0.2085125921       -3.7314249900        0.6987947203
 C          0.0755327960       -5.0686082050        0.7030717875
 C          1.1860182620       -5.5687145203        0.0020024694
 N          1.4744221769       -6.9316704668        0.0037372111
 C          0.4343185921       -7.8616592383       -0.0016780987
 C         -0.7430515058       -7.6006273171       -0.7078000696
 C         -1.7725828283       -8.5196197957       -0.7020665347
 C         -1.6493123212       -9.7090905259       -0.0002087818
 C         -0.4836026776       -9.9727322144        0.7027722893
 C          0.5516068441       -9.0600293630        0.7077394447
 C          2.8019826589       -7.3608311923        0.0113640564
 C          3.7722731712       -6.6434942063        0.7162768759
 C          5.0857017827       -7.0670560415        0.7129126982
 C          5.4551131097       -8.2066154090        0.0146464458
 C          4.4965407867       -8.9215932976       -0.6871494631
 C          3.1804784601       -8.5061093013       -0.6944713298
 C          1.9989569359       -4.6631157144       -0.7007161821
 C          1.7164146267       -3.3255619802       -0.7002704503
 C         -1.0478994740       -0.9217001787        0.0084963075
 C         -2.1237441209       -1.8118379394       -0.1717377126
 N         -3.0191885795       -2.5047712338       -0.3797511495
 C         -1.3434083730        0.4322753718        0.0011576883
 C         -2.7365746051        0.8873656399       -0.0183479887
 C         -3.1778175993        1.7976283284       -0.9788765720
 C         -4.4894823982        2.2140963268       -1.0040105671
 C         -5.3989934850        1.7423918155       -0.0546686554
 N         -6.7287684169        2.1690881341       -0.0746172317
 C         -7.7524208449        1.2792334651        0.2631199633
 C         -7.6626094092       -0.0685352608       -0.0898397852
 C         -8.6753989156       -0.9431635396        0.2505198617
 C         -9.7911232615       -0.4932113421        0.9386012883
 C         -9.8856401486        0.8440749385        1.2895767652
 C         -8.8761657742        1.7267476665        0.9598939338
 C         -7.0315565952        3.4854607962       -0.4358341297
 C         -6.1886354303        4.5323789076       -0.0587444489
 C         -6.4894512298        5.8300108825       -0.4222196546
 C         -7.6307553974        6.1068129723       -1.1580715225
 C         -8.4714479331        5.0710479595       -1.5334355064
 C         -8.1776136721        3.7687474525       -1.1804224731
 C         -4.9586174898        0.8390172757        0.9148860151
 C         -3.6489443027        0.4154985291        0.9260392970
 H          1.4030813369        2.9834137605        1.7231428176
 H          3.2324991142        4.6098464268        1.7672552949
 H          6.8602397200        6.2930682847        1.4987138868
 H          6.4022437895        8.6235672835        2.1337636384
 H          4.2868239812        9.7030408176        1.4571698464
 H          2.6341273810        8.4316506206        0.1316093173
 H          3.0950683607        6.1097241584       -0.5215032273
 H          7.0536739461        6.1741245352       -1.2367810883
 H          9.3393716591        5.4827760528       -1.8196608770
 H         10.1558708223        3.2372926905       -1.1952776290
 H          8.6660146574        1.6903845409        0.0265142901
 H          6.3891497654        2.3832897303        0.6297656109
 H          4.9726250920        2.7470411651       -1.6688310210
 H          3.1506565620        1.1092969009       -1.7011370693
 H         -1.0373147413       -3.3711857031        1.2878823716
 H         -0.5348192566       -5.7496723864        1.2782623330
 H         -0.8348200138       -6.6805704297       -1.2652360491
 H         -2.6754542275       -8.3085117142       -1.2548575338
 H         -2.4565627102      -10.4252528228        0.0005657710
 H         -0.3840017199      -10.8927892402        1.2592712346
 H          1.4516584424       -9.2578760226        1.2711899515
 H          3.4831998167       -5.7635144219        1.2710148539
 H          5.8253291094       -6.5069753775        1.2648038568
 H          6.4831703194       -8.5346949214        0.0157408116
 H          4.7784159532       -9.8047970102       -1.2408747525
 H          2.4380471669       -9.0529982889       -1.2569837783
 H          2.8335554780       -5.0397168884       -1.2741647862
 H          2.3286014367       -2.6617067033       -1.2903742355
 H         -2.4916137877        2.1576374754       -1.7304708341
 H         -4.8247425816        2.8988124468       -1.7687207888
 H         -6.7997377223       -0.4204721882       -0.6352878513
 H         -8.5948888120       -1.9824622131       -0.0303549416
 H        -10.5813205744       -1.1800354045        1.2007452513
 H        -10.7480361616        1.2014834675        1.8325809394
 H         -8.9441864056        2.7655977378        1.2478118029
 H         -5.3036966363        4.3208597972        0.5226629866
 H         -5.8304597673        6.6308915436       -0.1226111756
 H         -7.8629617735        7.1227638965       -1.4386607957
 H         -9.3584031901        5.2773096195       -2.1139989228
 H         -8.8254453924        2.9606412672       -1.4870314669
 H         -5.6492036986        0.4837309136        1.6652709333
 H         -3.3182984278       -0.2704122687        1.6920200391
