  47
 
 C         -1.1705777930       -2.7255048392        1.1125855688
 C         -0.5157489117       -1.9200113179       -0.0431821938
 C         -0.9109518279       -2.4593972325       -1.4446718994
 C          0.9754862948       -2.1486746154        0.0388835803
 C          1.4674876397       -3.4463253313        0.0746506434
 C          2.8244753921       -3.7107136926        0.1005850150
 C          3.7299284866       -2.6543318418        0.0830744144
 C          3.2738449764       -1.3589998745        0.0518044245
 C          1.8936188939       -1.0853907964        0.0361640966
 N          1.4433693129        0.2105630701        0.0256848717
 C          2.4151751527        1.2572292689       -0.0093966499
 C          2.8209559288        1.7761878664       -1.2317485053
 C          3.7664871453        2.7867952152       -1.2657997911
 C          4.3053376849        3.2761526631       -0.0869681076
 C          3.8993057436        2.7547268726        1.1307259854
 C          2.9545587586        1.7439290259        1.1746039777
 C          0.1154487648        0.5581254562        0.0591187041
 C         -0.2316068728        1.8988472203        0.1238732707
 C         -1.5576226185        2.2859793121        0.1434915421
 C         -2.5979557658        1.3298285254        0.0788972831
 C         -3.9279402003        1.7486551719        0.0802991797
 C         -4.9569500636        0.7984506608        0.0088374392
 F         -6.2503049792        1.2432673491        0.0131221596
 C         -4.6970872008       -0.5391256260       -0.0638763250
 C         -3.3599171242       -0.9703961949       -0.0639469737
 C         -2.2732617555       -0.0662616974        0.0107177421
 C         -0.9137613800       -0.4666758505        0.0253551677
 H         -1.9444370409       -2.1459822458        1.6057085153
 H         -0.4209873706       -2.9710790881        1.8622305877
 H         -1.6067502134       -3.6525510797        0.7502924486
 H         -0.2758979442       -1.9953859469       -2.1980438310
 H         -0.7681427267       -3.5352881808       -1.4938499973
 H         -1.9415090117       -2.2240949170       -1.6875297173
 H          0.7743079614       -4.2728670208        0.0859074071
 H          3.1770935552       -4.7301635685        0.1300152370
 H          4.7918351491       -2.8487802595        0.0957071477
 H          3.9784314705       -0.5426481762        0.0406563488
 H          2.3925380211        1.3884546080       -2.1439867722
 H          4.0815907681        3.1912298427       -2.2158300468
 H          5.0413084960        4.0653635579       -0.1172731309
 H          4.3174063157        3.1349004074        2.0506012135
 H          2.6283503416        1.3312335048        2.1176583845
 H          0.5348274742        2.6562211169        0.1613118821
 H         -1.8141295740        3.3325694551        0.1990450292
 H         -4.1742532354        2.7972898696        0.1353405869
 H         -5.5023495501       -1.2547198392       -0.1193813336
 H         -3.2044855617       -2.0305931077       -0.1204893375
