90

O      8.675820    3.345575    0.578898
C      8.397629    2.185336    0.360652
C      9.375311    1.092501    0.132436
C     10.755025    1.146693    0.114212
C     11.431874   -0.049610   -0.130537
C     10.722996   -1.249556   -0.346916
C      9.322181   -1.278718   -0.323326
C      8.651811   -0.093779   -0.080833
C      7.247812    0.208334    0.004233
N      6.228974   -0.651644   -0.144030
C      5.003405   -0.086648   -0.021025
C      3.878649   -0.885983   -0.159684
C      2.576334   -0.367787   -0.052141
C      1.424909   -1.270056   -0.203655
C      0.917762   -1.572949   -1.474262
C     -0.247427   -2.332662   -1.613491
C     -0.928634   -2.823346   -0.487400
N     -2.170908   -3.541107   -0.634080
C     -2.425334   -4.725324    0.152248
C     -3.708822   -4.998638    0.659467
C     -3.954146   -6.143497    1.424071
C     -2.919189   -7.035921    1.697720
C     -1.640034   -6.785032    1.207507
C     -1.395365   -5.640573    0.441693
C     -3.175936   -3.029054   -1.536547
C     -3.912878   -3.891489   -2.367483
C     -4.888659   -3.391227   -3.235531
C     -5.143320   -2.021541   -3.287388
C     -4.421435   -1.149695   -2.475143
C     -3.443220   -1.649065   -1.608920
C     -0.388855   -2.560989    0.781586
C      0.771263   -1.792480    0.921430
C      2.406142    1.013507    0.200716
C      1.073336    1.629076    0.302533
C      0.324529    1.909216   -0.849604
C     -0.965825    2.439859   -0.754087
C     -1.543216    2.710541    0.497014
N     -2.886236    3.229012    0.596974
C     -3.330104    4.257457   -0.313396
C     -4.624433    4.230335   -0.861344
C     -5.052643    5.225076   -1.745166
C     -4.193597    6.264976   -2.095567
C     -2.907329    6.311373   -1.564227
C     -2.478720    5.315508   -0.681602
C     -3.784445    2.708724    1.601896
C     -3.810218    1.336039    1.911040
C     -4.677627    0.833609    2.886066
C     -5.532904    1.694815    3.569927
C     -5.523247    3.057720    3.279912
C     -4.656509    3.559872    2.304253
C     -0.779670    2.452604    1.648137
C      0.511446    1.922079    1.552302
C      3.544929    1.822948    0.350048
C      4.828765    1.313296    0.245979
N      5.871698    2.156983    0.394768
C      7.062326    1.556806    0.264464
H     11.283623    2.079535    0.282484
H     12.520330   -0.057421   -0.155800
H     11.275537   -2.168890   -0.535718
H      8.780158   -2.205134   -0.491764
H      4.018348   -1.948236   -0.357324
H      1.405294   -1.186390   -2.366578
H     -0.631257   -2.532316   -2.612005
H     -4.528856   -4.306354    0.478366
H     -4.953032   -6.332927    1.808100
H     -3.109986   -7.926425    2.292807
H     -0.830253   -7.481335    1.417626
H     -0.391905   -5.476307    0.055565
H     -3.717815   -4.961380   -2.354285
H     -5.445879   -4.074002   -3.873125
H     -5.904055   -1.633479   -3.962114
H     -4.618781   -0.080599   -2.508445
H     -2.903204   -0.950597   -0.972186
H     -0.897475   -2.913330    1.675182
H      1.141256   -1.572495    1.921298
H      0.732873    1.693956   -1.834968
H     -1.530745    2.612825   -1.667582
H     -5.305865    3.419024   -0.614033
H     -6.056094    5.184512   -2.159827
H     -4.526950    7.040309   -2.781510
H     -2.235632    7.123971   -1.831610
H     -1.476257    5.381088   -0.265260
H     -3.162788    0.641661    1.379257
H     -4.685479   -0.231364    3.106213
H     -6.207627    1.303985    4.328574
H     -6.187142    3.733341    3.813796
H     -4.651947    4.629811    2.107381
H     -1.186575    2.671076    2.633206
H      1.068715    1.723529    2.465120
H      3.425426    2.888857    0.544361
