103

O      0.103849    3.436254    3.627448
S      0.012382    3.120044    2.213108
O     -0.035654    4.182151    1.224436
C     -1.436520    2.117995    1.971153
C     -2.123435    1.604581    3.071611
C     -3.255555    0.811156    2.864681
C     -3.718650    0.527818    1.567058
C     -4.908455   -0.314618    1.353605
C     -5.001906   -1.596713    1.946485
C     -6.117261   -2.423430    1.755003
C     -7.151271   -1.964256    0.959533
C     -7.075850   -0.689116    0.361197
C     -5.971290    0.135071    0.551929
C     -8.337465   -0.423068   -0.463882
C     -9.091942    0.835136   -0.029636
C     -9.623588    1.146629    1.215142
C    -10.272669    2.372614    1.367087
C    -10.382451    3.264863    0.287979
C     -9.845428    2.947360   -0.963793
C     -9.201206    1.730502   -1.117928
C     -8.562017    1.146784   -2.280084
C     -8.413869    1.640294   -3.566354
C     -7.743782    0.854871   -4.509895
C     -7.231335   -0.406479   -4.164850
C     -7.378455   -0.905947   -2.869966
C     -8.044206   -0.122546   -1.935835
C     -9.129337   -1.714793   -0.250464
C    -10.373659   -2.067982   -0.756075
C    -10.893110   -3.317799   -0.415837
C    -10.174178   -4.191404    0.416467
C     -8.921657   -3.831445    0.924317
C     -8.403132   -2.591559    0.587561
C     -3.016648    1.074377    0.477442
C     -1.883793    1.868789    0.672693
C      1.396504    2.073419    1.823716
C      2.021185    2.177588    0.580647
C      3.102299    1.342843    0.284144
C      3.577160    0.405599    1.219774
C      4.712375   -0.476936    0.897221
C      4.610091   -1.878420    1.070091
C      5.669910   -2.743549    0.765802
C      6.846261   -2.201902    0.280590
C      6.966363   -0.808019    0.101360
C      5.917125    0.053611    0.405576
C      8.354738   -0.469110   -0.446811
C      9.135203    0.504630    0.438324
C      9.497735    0.370966    1.772429
C     10.212160    1.410761    2.369122
C     10.553509    2.559518    1.636662
C     10.187202    2.689712    0.293113
C      9.477631    1.659135   -0.301937
C      8.973857    1.523954   -1.653946
C      9.058349    2.387109   -2.734455
C      8.474527    2.000750   -3.945362
C      7.816364    0.765958   -4.066861
C      7.728436   -0.104971   -2.979833
C      8.309580    0.282703   -1.779296
C      8.998016   -1.853643   -0.548668
C     10.271730   -2.193227   -0.985953
C     10.630593   -3.541856   -0.987668
C      9.724901   -4.526036   -0.558368
C      8.443513   -4.179651   -0.117844
C      8.084569   -2.841448   -0.114978
C      2.940443    0.337396    2.472070
C      1.858342    1.166796    2.779092
H     -1.795292    1.816082    4.086965
H     -3.790862    0.423880    3.730337
H     -4.182741   -1.967256    2.560936
H     -6.155615   -3.401892    2.221795
H     -5.943910    1.118698    0.089025
H     -9.537353    0.457185    2.049559
H    -10.696762    2.641430    2.331867
H    -10.890871    4.215850    0.429659
H     -9.935821    3.646026   -1.788573
H     -8.805174    2.612737   -3.845748
H     -7.617274    1.224639   -5.524904
H     -6.714189   -0.999891   -4.915460
H     -6.982417   -1.881081   -2.602858
H    -10.929510   -1.391801   -1.398812
H    -11.865479   -3.618813   -0.799080
H    -10.598731   -5.160479    0.668678
H     -8.377319   -4.515290    1.566630
H     -3.349975    0.875763   -0.540359
H     -1.365781    2.285946   -0.187906
H      1.679917    2.896392   -0.160973
H      3.573866    1.422496   -0.694549
H      3.679932   -2.309743    1.437412
H      5.557020   -3.813211    0.906965
H      6.041026    1.125411    0.269547
H      9.232937   -0.516894    2.338666
H     10.507048    1.332021    3.413066
H     11.109459    3.358369    2.122246
H     10.456857    3.582547   -0.260917
H      9.563428    3.343741   -2.653703
H      8.530518    2.664604   -4.805176
H      7.370657    0.485928   -5.018557
H      7.218978   -1.059355   -3.073075
H     10.971282   -1.431924   -1.318000
H     11.622335   -3.834623   -1.325076
H     10.025788   -5.571221   -0.569297
H      7.754276   -4.949441    0.212071
H      3.299611   -0.358798    3.228359
H      1.393013    1.102155    3.760150
