  89
 
 C          9.6161764592        1.0412010875       -3.3096299224
 C          9.3441557120        1.3797118806       -2.0537633835
 C          8.7095749478        0.5461813998       -1.0404836685
 C          8.4785526697        1.0837732403        0.2283960628
 C          7.8772790940        0.3388583648        1.2227736243
 C          7.4913822798       -0.9744076004        0.9814788652
 C          6.8495349685       -1.7983190014        2.0716431713
 O          5.9059413552       -2.7455101443        1.6026861149
 C          4.7433639440       -2.3101257657        1.0579187355
 C          3.8468298096       -3.3338671365        0.6875661640
 C          2.6245651720       -3.0523432769        0.1198072040
 C          2.2914312125       -1.7175753361       -0.0901492038
 C          3.1757925422       -0.6770787096        0.3016072474
 C          4.4061756447       -0.9725763824        0.8711678769
 C          2.5145453400        0.5563200752       -0.0122166099
 C          2.8676954016        1.8931927202        0.1135307893
 C          1.9795902197        2.8581485021       -0.3311361475
 C          0.7616470474        2.5063101171       -0.9049348958
 C          0.3891878043        1.1781774987       -1.0408460899
 C          1.2611774039        0.2078803145       -0.5767513562
 N          1.1482736441       -1.1704451204       -0.6178004119
 C          0.0547625930       -1.8974373065       -1.1030916160
 C          0.2418965330       -2.8912590718       -2.0385652367
 C         -0.8345119219       -3.6340174834       -2.5282724115
 C         -2.1256583794       -3.3586777271       -2.0696294663
 C         -2.3494282861       -2.3717780617       -1.1372268656
 N         -3.6457754741       -2.1000399009       -0.6813974545
 C         -4.5078020180       -3.0147097892       -0.1034179351
 C         -4.3342560024       -4.3726627805        0.1078202408
 C         -5.3658036652       -5.0683517377        0.7216398656
 C         -6.5347113976       -4.4246304464        1.1183566693
 C         -6.7032599886       -3.0623466051        0.9314940288
 C         -5.6830137159       -2.3440767586        0.3220533659
 C         -5.5029706069       -0.9582309788       -0.0088117649
 C         -6.2695181499        0.1772780941        0.1711727969
 C         -5.7806840836        1.4051223701       -0.2920496256
 O         -6.5707215798        2.4735118508       -0.0278082737
 C         -6.1402062612        3.7737359512       -0.3843454694
 C         -4.8550808196        4.2180036248        0.2750386200
 C         -4.4057757123        3.6330162008        1.4518493499
 C         -3.2144335637        4.0309237629        2.0254917113
 C         -2.4464930615        5.0434439135        1.4515004370
 C         -1.1755020938        5.4839158830        2.0180178481
 C         -0.4150510794        4.7873925494        2.8536319201
 C         -2.9271160451        5.6547511825        0.2917740412
 C         -4.1050808547        5.2399672218       -0.2961634390
 C         -4.5611208324        1.4724842279       -0.9827481283
 C         -3.7832125154        0.3454169339       -1.1572819050
 C         -4.2313977637       -0.8614926515       -0.6386059892
 C         -1.2575517388       -1.6114707333       -0.5915710172
 C         -1.4456116773       -0.7551397243        0.4728849529
 N         -1.6076714564       -0.0378933852        1.3753814031
 C          7.7243442615       -1.5222858066       -0.2743802948
 C          8.3186167371       -0.7745807193       -1.2704891507
 H          9.3806830682        0.0737040431       -3.7189146465
 H         10.0913937488        1.7336729052       -3.9836061017
 H          9.6089078044        2.3739846034       -1.7132745583
 H          8.7734126812        2.1035104141        0.4328591972
 H          7.7053578727        0.7781529757        2.1957540549
 H          6.3888169010       -1.1450700221        2.8242185704
 H          7.6122861614       -2.4104232987        2.5672916834
 H          4.1476032081       -4.3526937931        0.8722122078
 H          1.9434818937       -3.8464146779       -0.1436847806
 H          5.0733763600       -0.1739214836        1.1476631215
 H          3.8175310187        2.1707632128        0.5443971708
 H          2.2354479078        3.9029072293       -0.2379842616
 H          0.0937557394        3.2791404193       -1.2533121255
 H         -0.5516540951        0.9136662868       -1.4967476374
 H          1.2365515708       -3.0694709861       -2.4205791454
 H         -0.6748771372       -4.3931329894       -3.2754744580
 H         -2.9685299344       -3.8992424445       -2.4747703022
 H         -3.4242348214       -4.8722132732       -0.1874367630
 H         -5.2569114566       -6.1280418438        0.8961207414
 H         -7.3188731477       -4.9988310258        1.5889434283
 H         -7.6055220146       -2.5657084050        1.2532056783
 H         -7.2250956041        0.1481113397        0.6693676205
 H         -6.9646901886        4.4202118887       -0.0614027899
 H         -6.0495256603        3.8562799772       -1.4762055194
 H         -4.9867453615        2.8507971776        1.9187962057
 H         -2.8846167086        3.5541810386        2.9351848845
 H         -0.8414001494        6.4589160063        1.6829651323
 H          0.5188987703        5.1777910345        3.2213835601
 H         -0.6783843166        3.7970955279        3.1851242694
 H         -2.3556893348        6.4511156250       -0.1641807149
 H         -4.4492069095        5.7117828810       -1.2060242456
 H         -4.2050085694        2.4122977829       -1.3698040992
 H         -2.8471505312        0.4093724962       -1.6889084577
 H          7.4284944044       -2.5436081404       -0.4679347197
 H          8.4842629114       -1.2259737616       -2.2361577380
