  72
 
 C         -8.1177106160       -0.6461027422        1.0810789036
 C         -7.2330550875       -0.0047549588       -0.0078409491
 C         -8.1173429310        0.6352548288       -1.0978366454
 C         -6.3896436449        1.0737543637        0.6328011739
 C         -7.0050426290        2.1449361762        1.2666433417
 C         -6.2774112049        3.1419014533        1.8904827234
 C         -4.8904407182        3.0724213319        1.9058893968
 C         -4.2511235035        2.0249180552        1.2850248108
 C         -4.9838446886        1.0236450128        0.6255677933
 N         -4.3167445945       -0.0029680302       -0.0053555254
 C         -2.8923572044       -0.0021323297       -0.0039936598
 C         -2.1922311163        0.8612781223       -0.8446891521
 C         -0.8151066444        0.8614061974       -0.8396004872
 C         -0.0934605426       -0.0001420212       -0.0010734495
 C          1.3630109870        0.0010258151        0.0004038621
 C          2.0849934088        1.1844543713       -0.2029944444
 C          3.4753153969        1.1658125702       -0.1787541067
 C          4.2911578196        2.3525304984       -0.3578652279
 C          5.6707158727        2.1985532738       -0.5914991165
 C          6.4925810311        3.2808789932       -0.7685063250
 C          5.9641269780        4.5818600272       -0.7134502410
 C          6.7939760193        5.6961002180       -0.8863882426
 N          7.4746813022        6.6164508938       -1.0287080506
 C          4.5896536498        4.7498697100       -0.4749799536
 C          3.7760402788        3.6581592843       -0.3022098350
 N          4.1177389200        0.0033711173        0.0028580989
 C          3.4769642802       -1.1601276699        0.1835772792
 C          4.2945026830       -2.3453286151        0.3649015568
 C          3.7817230156       -3.6518922334        0.3094991680
 C          4.5967695051       -4.7420275873        0.4854119571
 C          5.9704153096       -4.5714313568        0.7268079836
 C          6.8015973064       -5.6840335923        0.9037727357
 N          7.4833630363       -6.6030385766        1.0497036377
 C          6.4966278830       -3.2695108388        0.7811627422
 C          5.6733535560       -2.1887828305        0.6010277743
 C          2.0866239139       -1.1811437366        0.2052620477
 C         -0.8156156107       -0.8627438019        0.8359279597
 C         -2.1927594643       -0.8645910544        0.8381140674
 C         -4.9815075117       -1.0302271170       -0.6376800761
 C         -4.2464194965       -2.0304258115       -1.2961289372
 C         -4.8833848880       -3.0785326313       -1.9183915826
 C         -6.2702938751       -3.1497213156       -1.9053676916
 C         -7.0002262401       -2.1538288818       -1.2825029812
 C         -6.3872322455       -1.0820303489       -0.6473771445
 H         -7.4943541704       -1.0985605366        1.8499240088
 H         -8.7531373883        0.0998021791        1.5483714087
 H         -8.7530887027       -1.4165343975        0.6553987617
 H         -8.7512045167       -0.1115605264       -1.5657948543
 H         -7.4937320883        1.0885179092       -1.8660002307
 H         -8.7543016995        1.4048274784       -0.6729745094
 H         -8.0814980312        2.2075348771        1.2789015968
 H         -6.7870138066        3.9625153342        2.3713449524
 H         -4.3107842891        3.8338663629        2.4046221135
 H         -3.1748938958        1.9671607681        1.3079548389
 H         -2.7374255774        1.5203999744       -1.5042222843
 H         -0.2845551832        1.5146842846       -1.5152447821
 H          1.5654285678        2.1157603122       -0.3538484829
 H          6.0700069284        1.1963993286       -0.6374713858
 H          7.5497490172        3.1472106545       -0.9506403772
 H          4.1841379427        5.7506544142       -0.4238177910
 H          2.7284464160        3.8218893676       -0.1012365885
 H          2.7348570901       -3.8176189704        0.1063699769
 H          4.1930370971       -5.7435537260        0.4346125851
 H          7.5531883098       -3.1338624433        0.9653532423
 H          6.0708864778       -1.1859066474        0.6465333589
 H          1.5683774426       -2.1133027475        0.3553867153
 H         -0.2855615882       -1.5152890543        1.5126720574
 H         -2.7383924522       -1.5244783317        1.4965195272
 H         -3.1702227758       -1.9713236225       -1.3171960712
 H         -4.3019488181       -3.8391136812       -2.4163710167
 H         -6.7780713205       -3.9708324075       -2.3873057157
 H         -8.0765807988       -2.2177938778       -1.2965740743
