  138
 
 C         11.3501143325        7.1645219804        1.9003794628
 C          9.8601298866        7.0101252348        2.2366560195
 C          9.1001761400        8.1624853557        1.5742981776
 C          9.6566015809        7.1138406657        3.7549748400
 C          9.3832081018        5.6453894730        1.7661106250
 C          8.3614374338        5.4749227115        0.8398541447
 C          7.9517088366        4.2146783326        0.4447309786
 C          8.5518491132        3.0691258555        0.9564819801
 C          8.1110757197        1.7294375965        0.5467096551
 C          9.0536716705        0.7172683392        0.3200306093
 C          8.6848036858       -0.5609343731       -0.0454705356
 C          7.3306652140       -0.8386216051       -0.1711108141
 C          6.3650190564        0.1769865477        0.0209877616
 C          6.7581977411        1.4550144734        0.3798050109
 C          5.0826876849       -0.4260196658       -0.2290852119
 C          3.7893433649        0.0584661102       -0.1868868862
 C          2.7243718024       -0.8101487325       -0.4554156499
 C          1.3533248772       -0.3869705196       -0.4469211125
 C          0.9319286071        0.9507152902       -0.4714380880
 N         -0.3156310428        1.3029447932       -0.4724643334
 C         -1.3185216327        0.3716731425       -0.4458139235
 C         -2.6891905469        0.7960319993       -0.4547647862
 C         -2.9667960749        2.1524044687       -0.7428678748
 C         -4.2475942010        2.6457565834       -0.7965622914
 C         -5.3000295332        1.7684243027       -0.5571568877
 C         -5.0475655422        0.4179775828       -0.2184861546
 C         -3.7548978309       -0.0684743627       -0.1759562586
 C         -6.3302712718       -0.1789297882        0.0447173077
 C         -6.7253167650       -1.4511959370        0.4213735233
 C         -8.0791385303       -1.7231847263        0.5859860692
 C         -8.5231647537       -3.0574338834        1.0099978046
 C         -7.8276348933       -3.7655889964        1.9845177880
 C         -8.2490697090       -5.0154654432        2.3993350095
 C         -9.3794117966       -5.6138370536        1.8559867429
 C         -9.8826220623       -6.9828102963        2.2850208917
 C        -11.3084347005       -6.8406657529        2.8365310455
 C         -9.8867356481       -7.9195343052        1.0686648220
 C         -9.0123772110       -7.6180525512        3.3728853052
 C        -10.0681380021       -4.9039791642        0.8746965391
 C         -9.6550611187       -3.6545472852        0.4604328610
 C         -9.0200635108       -0.7124095550        0.3472065974
 C         -8.6486898134        0.5636843562       -0.0232997392
 C         -7.2943000230        0.8369801067       -0.1545490369
 N         -6.6591256456        2.0056535431       -0.5191706580
 C         -7.2851975340        3.2200586674       -0.8264937791
 C         -6.9637229322        3.9036819970       -1.9928422043
 C         -7.5822909469        5.1030036604       -2.2945652931
 C         -8.5430247401        5.6546910010       -1.4551048012
 C         -9.2526619841        6.9649788703       -1.7557156829
 C        -10.7622432440        6.7032907878       -1.8552755593
 C         -8.7904695216        7.5982831095       -3.0707760834
 C         -8.9704393886        7.9596167258       -0.6207340502
 C         -8.8548614963        4.9562783222       -0.2901243445
 C         -8.2389228202        3.7635495450        0.0286047108
 C         -0.8972406512       -0.9661925323       -0.4606423711
 N          0.3504079914       -1.3183888189       -0.4629226691
 C          3.0036770343       -2.1684813319       -0.7322352949
 C          4.2853164977       -2.6599501224       -0.7855226571
 C          5.3369732405       -1.7786047744       -0.5574885645
 N          6.6969486761       -2.0121774267       -0.5224669084
 C          7.3242793491       -3.2285681669       -0.8188739247
 C          8.2826026325       -3.7607346382        0.0348778945
 C          8.9029256544       -4.9588131390       -0.2694435954
 C          8.5849199122       -5.6684007804       -1.4215141139
 C          9.2401721872       -6.9897051724       -1.7897341555
 C         10.2800385686       -7.4401041996       -0.7602644693
 C          9.9442312407       -6.8383382986       -3.1457625513
 C          8.1581112715       -8.0747892872       -1.8835200194
 C          7.6167181219       -5.1245746322       -2.2636161637
 C          6.9967441164       -3.9259247195       -1.9778539724
 C          9.5803641254        3.2353361433        1.8809597642
 C          9.9813605918        4.4948577598        2.2755734852
 H         11.9495343341        6.4077424944        2.3987293686
 H         11.5048673402        7.0696977068        0.8274684983
 H         11.7064309827        8.1430935541        2.2157807361
 H          9.2317862869        8.1488270773        0.4947598589
 H          8.0384717354        8.1150526385        1.8053040822
 H          9.4826338366        9.1107185751        1.9471788027
 H         10.2272644702        6.3556873178        4.2840768431
 H          8.6051619331        6.9831229158        4.0028237786
 H          9.9765851039        8.0911566093        4.1106381011
 H          7.8654326238        6.3285368343        0.4066371441
 H          7.1649770574        4.1205084346       -0.2901709889
 H         10.1033658357        0.9541761451        0.4127719827
 H          9.4314451060       -1.3165983547       -0.2382111314
 H          6.0196613030        2.2236088017        0.5510857646
 H          3.6145709463        1.0906774282        0.0742962788
 H          1.6647496382        1.7431281785       -0.5083904589
 H         -2.1277046802        2.8064087088       -0.9236532772
 H         -4.4282558395        3.6896971430       -1.0051205639
 H         -3.5810263167       -1.0991858022        0.0917704066
 H         -5.9908077318       -2.2294714696        0.5642177067
 H         -6.9553945439       -3.3221966172        2.4433550536
 H         -7.6767427651       -5.5157503359        3.1638388363
 H        -11.9883051394       -6.4535671784        2.0826526613
 H        -11.3167132305       -6.1592047629        3.6848572597
 H        -11.6812606881       -7.8080995983        3.1668334074
 H         -8.8822754406       -8.0086891429        0.6598499772
 H        -10.2307882861       -8.9101147951        1.3592038475
 H        -10.5411621116       -7.5485336509        0.2847866438
 H         -8.9965560509       -7.0033842390        4.2700148814
 H         -9.4191733165       -8.5914761473        3.6401292829
 H         -7.9932394107       -7.7651349843        3.0228018084
 H        -10.9486728982       -5.3306406037        0.4172251921
 H        -10.2058669927       -3.1419895730       -0.3152643567
 H        -10.0684912591       -0.9356831077        0.4790113184
 H         -9.3938267592        1.3223234505       -0.2098611905
 H         -6.2370431882        3.4840617675       -2.6726819795
 H         -7.3035159515        5.5980939063       -3.2102012901
 H        -11.1597896161        6.3122033227       -0.9229066966
 H        -11.2876277207        7.6269840157       -2.0882215621
 H        -10.9674498217        5.9813847376       -2.6431416507
 H         -7.7276465326        7.8271454191       -3.0432152902
 H         -8.9935201056        6.9425685480       -3.9143373998
 H         -9.3295913454        8.5294369328       -3.2329127121
 H         -7.8999319717        8.1308624538       -0.5283821952
 H         -9.4555637965        8.9110436503       -0.8280004388
 H         -9.3395604699        7.5906776442        0.3320717943
 H         -9.5898553398        5.3498217154        0.3956258854
 H         -8.4817641078        3.2550533083        0.9497947584
 H         -1.6302218204       -1.7588087351       -0.4900822873
 H          2.1653433415       -2.8256590975       -0.9048890637
 H          4.4669252689       -3.7053700666       -0.9856524482
 H          8.5299662792       -3.2412441340        0.9487453597
 H          9.6397284731       -5.3350699468        0.4211221192
 H          9.8255181202       -7.5896944860        0.2163494553
 H         10.7151051777       -8.3862376884       -1.0757623874
 H         11.0849599799       -6.7139632992       -0.6729467511
 H         10.6960432780       -6.0534913666       -3.0937255538
 H         10.4359933931       -7.7698027313       -3.4179146982
 H          9.2401908912       -6.5835138280       -3.9328973356
 H          7.4242583492       -7.8385964301       -2.6489835429
 H          7.6393628735       -8.1716688703       -0.9319811407
 H          8.6098003335       -9.0334111849       -2.1295734343
 H          7.3396092152       -5.6383601539       -3.1716305999
 H          6.2662979622       -3.5148784444       -2.6587740654
 H         10.0550391053        2.3657583735        2.3126489339
 H         10.7773200404        4.5757596844        3.0011991691
