  124
 
 C          6.5935313814        2.9112018391       -3.0527897124
 C          6.7512462484        1.3871020678       -3.1586298313
 C          8.1724056558        1.0252040496       -2.7154788964
 C          6.5835349902        0.9465539524       -4.6206863634
 C          5.6831873664        0.7155499192       -2.3055603102
 C          4.3334577199        0.9292027604       -2.6170170355
 C          3.2986013444        0.3601989476       -1.9017663490
 C          3.6175082683       -0.4418343183       -0.8177294764
 C          4.9674455595       -0.6894619665       -0.4948762255
 C          5.9894191736       -0.1097363115       -1.2354273627
 C          4.9609623293       -1.5946451438        0.6231222385
 C          5.9648839030       -2.1709428865        1.3850300137
 C          5.6426873282       -3.0115324870        2.4434363847
 C          6.7655696370       -3.6353844640        3.2622853010
 C          6.2528198466       -4.5413865094        4.3860229506
 C          7.6503478191       -4.4827953915        2.3355827539
 C          7.6025166350       -2.5154560731        3.8988152156
 C          4.2926713137       -3.2427165429        2.7218812534
 C          3.2699579863       -2.6809799648        1.9779548514
 C          3.6057556368       -1.8634872619        0.9126009430
 N          2.7996737213       -1.1614571061        0.0339022332
 C          1.4062548915       -1.1589497109        0.0328326501
 C          0.6851915097       -2.3349010000        0.0442745396
 C         -0.7108833199       -2.3336104024        0.0734443143
 C         -1.4300720880       -1.1569592382        0.0442477674
 N         -2.8235852969       -1.1563039326        0.0415687950
 C         -3.6306485600       -1.8798932420       -0.8179901296
 C         -3.2941678618       -2.7319297683       -1.8580994289
 C         -4.3188082405       -3.3052192206       -2.5844227370
 C         -5.6725453537       -3.0578274111       -2.3187059075
 C         -6.7277288207       -3.7421610848       -3.1773471757
 C         -6.5695401208       -5.2650945180       -3.0546922415
 C         -6.5386764353       -3.3164469207       -4.6411965188
 C         -8.1552923803       -3.3785416408       -2.7570142762
 C         -5.9947774233       -2.1874113093       -1.2896738523
 C         -4.9841485200       -1.5958330212       -0.5426501008
 C         -4.9902564953       -0.6575793140        0.5472681665
 C         -6.0119281216       -0.0507528324        1.2667178680
 C         -5.7049307093        0.8038077490        2.3131900458
 C         -6.7724322272        1.5032151194        3.1443257533
 C         -6.6058986324        3.0233427472        3.0015867936
 C         -6.6128063659        1.0983266238        4.6176006120
 C         -8.1939421011        1.1384438788        2.7047150628
 C         -4.3550526001        1.0204833282        2.6228740379
 C         -3.3207003955        0.4263703767        1.9278856069
 C         -3.6402257053       -0.4066060454        0.8675974504
 C         -0.7211193380        0.0702351019       -0.0135288598
 N         -1.3745196035        1.2278185483       -0.2049079167
 C         -0.7063239373        2.3561686013       -0.2015472870
 C         -1.4459767740        3.5612384430       -0.5877754702
 C         -0.8561620342        4.5495409224       -1.3740673582
 C         -1.5801799633        5.6692180272       -1.7379261086
 C         -2.8940277346        5.8164614780       -1.3220446091
 C         -3.4913928285        4.8279571111       -0.5561405217
 C         -2.7766136375        3.7009169871       -0.1968644665
 C          0.6867051262        2.3623877035        0.1433302225
 C          1.4274303821        3.5833821601        0.4724380977
 C          0.8345979130        4.6155266299        1.1980007183
 C          1.5575607603        5.7539176331        1.5008860048
 C          2.8738530365        5.8760332084        1.0844928657
 C          3.4750145341        4.8437215451        0.3818395643
 C          2.7609313764        3.6987658846        0.0829309310
 N          1.3533715817        1.2341717693        0.1940917897
 C          0.6989879831        0.0706209124        0.0473268946
 H          5.6119479294        3.2333212628       -3.3898563062
 H          6.7220263336        3.2285912370       -2.0199662013
 H          7.3445834765        3.4087909507       -3.6630104409
 H          8.3455616774       -0.0457299917       -2.7944847420
 H          8.3562940173        1.3429326083       -1.6916693038
 H          8.8913217357        1.5302884583       -3.3577986529
 H          7.3622229642        1.3912143882       -5.2371281163
 H          6.6578691831       -0.1365627378       -4.6978603265
 H          5.6200956578        1.2505747635       -5.0204535021
 H          4.0761751006        1.5604304281       -3.4544781329
 H          2.2722279855        0.5388462474       -2.1885222230
 H          7.0091640332       -0.3234203073       -0.9623574199
 H          6.9933684867       -1.9504311806        1.1448327129
 H          5.6674606414       -5.3672746292        3.9879488026
 H          7.0995566263       -4.9603783889        4.9264282095
 H          5.6465614175       -3.9821415235        5.0951956060
 H          7.0591529617       -5.2663394626        1.8652528205
 H          8.0976591762       -3.8778145184        1.5518617445
 H          8.4514977833       -4.9491549503        2.9054209325
 H          6.9766082757       -1.8960346704        4.5385103138
 H          8.4007611687       -2.9409828955        4.5035825769
 H          8.0513483446       -1.8773853565        3.1426837320
 H          4.0143027731       -3.8778452913        3.5464590136
 H          2.2387720258       -2.8710676350        2.2377429990
 H          1.2118577957       -3.2773379627        0.0364129379
 H         -1.2388153841       -3.2745653374        0.1127623284
 H         -2.2630643884       -2.9354490619       -2.1079350562
 H         -4.0503362740       -3.9686797477       -3.3924405925
 H         -7.3300335468       -5.7691615506       -3.6476026828
 H         -5.5943550152       -5.5927238887       -3.4042008667
 H         -6.6806085150       -5.5720257829       -2.0164179905
 H         -5.5651283674       -3.6162593165       -5.0193457306
 H         -6.6204148376       -2.2349008473       -4.7318648437
 H         -7.3025640706       -3.7747263601       -5.2660964947
 H         -8.3337315237       -2.3106098560       -2.8603072778
 H         -8.3476323843       -3.6758883381       -1.7285858883
 H         -8.8647017442       -3.9006496559       -3.3962440204
 H         -7.0179180958       -1.9486395056       -1.0526347575
 H         -7.0317374461       -0.2670717861        0.9959549223
 H         -5.6230397048        3.3482690072        3.3322144197
 H         -7.3548679175        3.5397591888        3.5986307728
 H         -6.7311832618        3.3166064180        1.9612564602
 H         -5.6498393322        1.4083951825        5.0139081184
 H         -6.6917965334        0.0177554285        4.7213196677
 H         -7.3924368906        1.5610673103        5.2193569356
 H         -8.3744720741        0.0712007505        2.8117341642
 H         -8.3713092618        1.4294979478        1.6719027272
 H         -8.9122227375        1.6652931624        3.3300280317
 H         -4.0975799435        1.6746101239        3.4425507067
 H         -2.2942060738        0.6090218110        2.2119470240
 H          0.1637604330        4.4318974498       -1.7107736711
 H         -1.1165185402        6.4294253879       -2.3492028368
 H         -3.4532275979        6.6972273256       -1.6009438111
 H         -4.5183100422        4.9352515526       -0.2402721083
 H         -3.2301740752        2.9190474450        0.3940710215
 H         -0.1869093905        4.5173190253        1.5362914734
 H          1.0911628751        6.5484377969        2.0645468848
 H          3.4323134249        6.7711745419        1.3148857258
 H          4.5041500786        4.9316882465        0.0672084020
 H          3.2166312546        2.8840681038       -0.4599963536
