120
 xtb: 6.7.1 (edcfbbe)
N           12.77508764818837       -6.41797431032772       -0.28812888833915
C           11.79328460920083       -5.82206938824722       -0.28490671921404
C           10.58651117704661       -5.09060826727171       -0.27838036767325
C            9.46484849497497       -5.59529196693640        0.39057147922574
C            8.28840561214475       -4.87604878354575        0.39202506879699
C            8.19953443559501       -3.64389953435496       -0.26488806941830
C            6.94102389900333       -2.88536658355481       -0.25196399623750
C            5.71078531722237       -3.54670868256036       -0.35245091106519
C            4.54157226259395       -2.82831761787048       -0.31833214922101
C            4.55452453904768       -1.43551864989557       -0.18680376620750
C            5.78134354471216       -0.74672753376390       -0.10198385828468
C            6.95558825926467       -1.50317600636668       -0.13292012261539
C            5.79022270561669        0.70644165230635        0.01514352692419
C            6.97388603328618        1.44751858601930        0.06142960797631
C            6.97446403588442        2.83082893770282        0.15829860808450
C            8.24337281681878        3.57228140069841        0.18339357178050
C            9.32850980866061        3.10593582561757        0.92737765121294
C           10.52023419946983        3.79979193718146        0.95101321990401
C           10.64986340654325        4.98085487708263        0.21659285268304
C           11.86811048957815        5.69308047440100        0.23168945759969
N           12.85932978719313        6.27264838180446        0.24499641520238
C            9.57123946508642        5.45615648402522       -0.53309446542613
C            8.38289036393859        4.75654679708704       -0.54237383101542
C            5.75307574878207        3.51081374422062        0.22273394753989
C            4.57505263691061        2.80678989861792        0.18502110360078
C            4.57184786114653        1.41231020802792        0.07507607256204
C            3.31236835873207        0.70589391637601        0.01500527020479
N            2.18654739187429        1.39574244891271        0.08867812801379
C            1.03101314320723        0.71882931285769        0.02485064769975
C           -0.19546327241362        1.40706531515808        0.08996053270057
C           -1.39034987085977        0.73433262833188        0.02461678908395
C           -2.65206281065400        1.48868228146914        0.03138773152475
C           -3.64090266076582        1.23861832900809       -0.91988016627997
C           -4.82173584593788        1.94771300507833       -0.91679755849992
C           -5.06265751794318        2.92417204993146        0.05263529749544
N           -6.27360269710292        3.61638139080698        0.07598197112035
C           -6.30744717213960        4.96498108500804        0.45717548522276
C           -7.35499814398512        5.45350911957817        1.23740099969493
C           -7.38605706945557        6.78511016950480        1.60513444525993
C           -6.37498695686384        7.64655275286363        1.21047850557241
C           -5.33054204334799        7.16533472444890        0.43743342991088
C           -5.29512920611037        5.83728121696565        0.05772637675368
C           -7.46323686505462        2.96030058901729       -0.26889335984474
C           -8.45783925495438        3.62866427795542       -0.98236415633558
C           -9.63187787249288        2.97940991339063       -1.31402298581469
C           -9.83068431988625        1.65735601470462       -0.94986943499474
C           -8.84433454655683        0.98790893123098       -0.24340301266967
C           -7.67125908278552        1.63131150943703        0.10062608496004
C           -4.06698948529489        3.19000433751524        0.99485964560097
C           -2.87888043374527        2.49044827029595        0.97342366225804
C           -1.39735437107221       -0.69055888343847       -0.08673070877998
C           -2.66577629422962       -1.43739094355587       -0.06243891994625
C           -2.95449335558241       -2.38412830478150       -1.04265820088241
C           -4.14524578457898       -3.07999654680127       -1.02579771306267
C           -5.07717222714843       -2.86309566205449       -0.00958051713806
N           -6.28841485219964       -3.55917338762892        0.00284111259320
C           -6.95514750426451       -3.80940341375435       -1.20562117622254
C           -7.60693892093276       -5.02387545319233       -1.41765210134061
C           -8.26714085403368       -5.26008395281510       -2.60844668771780
C           -8.28228543618109       -4.29809569045365       -3.60578078641846
C           -7.63274783616598       -3.09124935403954       -3.40120113060939
C           -6.97601052314756       -2.84295701940164       -2.21120336466070
C           -6.83904387299827       -3.99755489565004        1.21217931024703
C           -8.21999698053477       -3.98378958941404        1.40938416151406
C           -8.75778981529039       -4.42219954902449        2.60427296058274
C           -7.93305141389412       -4.87340587617967        3.62222926715688
C           -6.56049272868216       -4.88774992260987        3.43249497242894
C           -6.01380696481198       -4.45875137842560        2.23830734264444
C           -4.77586866508801       -1.93803469147586        0.99164398591683
C           -3.59209116481337       -1.23289820259017        0.95880160010646
C           -0.21228282559303       -1.37591004782465       -0.17509741855420
C            1.02286361782662       -0.70107269370654       -0.12492952421585
N            2.16976989554227       -1.39034837545697       -0.20076447019824
C            3.30395192335738       -0.71398843690489       -0.12742115314025
C            9.32769284068109       -3.15005432791896       -0.92962928908635
C           10.50983453834570       -3.86022423850735       -0.94124158020752
H            9.57440474725911       -6.48759774410622        0.99272293662884
H            7.47262655197884       -5.20772977235249        1.02234126789853
H            5.68449319538932       -4.62491766799966       -0.41748421927896
H            3.58191765009705       -3.32230993192361       -0.33686884059446
H            7.91386955692372       -1.01575168018069       -0.05676697631049
H            7.92662394632936        0.94690903328828       -0.01586875980458
H            9.22903808850456        2.20612539547402        1.50076997526249
H           11.35613668377682        3.44407088968097        1.52153757531818
H            9.67728281753962        6.36561792194989       -1.12138976573390
H            7.55681849461316        5.11506538261658       -1.15208916127459
H            5.74134271025562        4.58564312990955        0.30960788570656
H            3.62228627720288        3.30827142186975        0.23258822614439
H           -0.16811872541189        2.48311308770870        0.17053760104474
H           -3.46576060774830        0.49811909057732       -1.68074291852349
H           -5.56773501844800        1.75295691749392       -1.66637617880990
H           -8.14230849820362        4.77871654369529        1.55612583928074
H           -8.20552340975962        7.14616671004877        2.21727791258667
H           -6.40468008475617        8.68277983167903        1.51198397196922
H           -4.54228171835772        7.83017478639920        0.13034899147931
H           -4.48462896962647        5.46656379752050       -0.54522195419292
H           -8.30136766759035        4.65563274867992       -1.27195759325672
H          -10.39081644392441        3.50631364359071       -1.86836193139259
H          -10.74427175295277        1.14953987251253       -1.21634922413024
H           -8.99042110685098       -0.04309057333044        0.05109598329013
H           -6.90731802746322        1.10901042562052        0.66301224545901
H           -4.23764436276468        3.94165080644573        1.75668842892070
H           -2.12733045776504        2.69493124521064        1.72913560035826
H           -2.23704399962820       -2.56030429183086       -1.82847650273574
H           -4.35733625378159       -3.79897469813077       -1.80113159774269
H           -7.59150279542110       -5.77376013483311       -0.66080336889995
H           -8.76062946893643       -6.19673836737064       -2.78248855874441
H           -8.78313976594235       -4.47548423218442       -4.55432417195851
H           -7.63004925900352       -2.32237641589582       -4.18129569988464
H           -6.47041444338425       -1.89228725524443       -2.05581785998902
H           -8.87019005957784       -3.62673504329847        0.60317922695212
H           -9.84017558766190       -4.40596454661183        2.72223576825523
H           -8.37406205344907       -5.21827823191460        4.53742085022849
H           -5.92584571006097       -5.24970888067983        4.20774415408999
H           -4.95274099730428       -4.48224820826285        2.08537604754049
H           -5.49013133432126       -1.77050860331870        1.78718740566206
H           -3.38118663342428       -0.51925876920218        1.74422641371571
H           -0.19952746912620       -2.45469743264612       -0.23534196305369
H            9.22459241431473       -2.26446090201456       -1.54206666462978
H           11.33459801479385       -3.52976017487290       -1.55670841625882
