  41
 
 C          5.8333704711       -1.9478690574        0.1857024209
 O          4.4298528510       -1.8156509392        0.1567150696
 C          3.9032624147       -0.5781821598        0.0913558263
 C          4.6097230414        0.5820410911        0.0491747466
 C          3.9672269966        1.8690080487       -0.0209264174
 O          4.5372563493        2.9329082855       -0.0580593876
 O          2.5924157640        1.8821819497       -0.0486427911
 C          1.8713538469        0.7463483584       -0.0084899370
 C          2.4599438853       -0.5233621315        0.0658058489
 C          1.6558040994       -1.6762277847        0.1248218077
 C          0.2861115649       -1.6035132756        0.0964421743
 C         -0.3022496206       -0.3415923692       -0.0012825572
 C          0.4779493962        0.8351012370       -0.0383347848
 C         -0.4356573149        1.9387486191       -0.0924503605
 C         -0.2668714276        3.3162808114       -0.1603730329
 C         -1.3945667900        4.1092985442       -0.2227051671
 C         -2.6706327476        3.5480286475       -0.2317322173
 C         -2.8604612963        2.1809713315       -0.1645072882
 C         -1.7324395960        1.3779445692       -0.0793476367
 N         -1.6314722608       -0.0007892031       -0.0243725890
 C         -2.7113863825       -0.8989461910        0.0001787223
 C         -3.7324080776       -0.7345650390        0.9307514944
 C         -4.7974999900       -1.6162333781        0.9474413828
 C         -4.8477009314       -2.6680836956        0.0477942479
 C         -3.8292015851       -2.8346495292       -0.8758468669
 C         -2.7647562037       -1.9525383569       -0.9068090487
 H          6.2599194460       -1.4566794055        1.0647867243
 H          6.2894720983       -1.5348900436       -0.7184183928
 H          6.0276014800       -3.0177687720        0.2357982028
 H          5.6857810139        0.6163126156        0.0660716156
 H          2.1513828716       -2.6307240219        0.1974558443
 H         -0.3183926219       -2.4945987808        0.1596347973
 H          0.7244844509        3.7401353977       -0.1677431445
 H         -1.2918963468        5.1826820075       -0.2743164825
 H         -3.5319296250        4.1963844140       -0.2962485346
 H         -3.8519678221        1.7546853983       -0.1886731188
 H         -3.6780276083        0.0750505373        1.6429204305
 H         -5.5879220417       -1.4852123222        1.6712908519
 H         -5.6790964576       -3.3562090651        0.0660525399
 H         -3.8671327886       -3.6507679563       -1.5818703924
 H         -1.9792435058       -2.0650623861       -1.6390446006
