97
 xtb: 6.7.1 (edcfbbe)
F           -4.23390527914616       -4.65161726178716       -4.08322204962511
C           -4.54584112183033       -4.87196461956614       -2.79683793590190
F           -5.58759562422430       -5.75060821647760       -2.82746890562876
F           -3.52240165718813       -5.55190381583452       -2.26520026468376
C           -4.88777208425152       -3.61802258007958       -2.04816756318898
C           -4.55235082559616       -3.49558153155521       -0.70474435696959
C           -4.89651684120327       -2.34639784243753       -0.01828579702917
C           -5.57965302789700       -1.32354929689245       -0.67245378044212
N           -5.90081878189478       -0.14506546818366        0.02068488378895
C           -4.98181451574905        0.73145585482882        0.56738227172456
C           -3.53818580261309        0.56311961224901        0.50997784719957
C           -2.88013577862776        0.05807729567348       -0.61054133354700
C           -1.50518544956243       -0.06433105588926       -0.61607186755401
C           -0.74628971456153        0.30886626844933        0.49192971383317
C            0.71555682314092        0.16307657386580        0.48700745640484
C            1.38763944346584       -0.31134258527499        1.61375454201623
C            2.75921926942353       -0.45057992348396        1.60986209362584
C            3.50577334193489       -0.10310868810352        0.48294174438406
C            4.94717735552497       -0.28388627164761        0.52130144937322
N            5.53548878553369       -1.25904073300965        1.17256584043158
C            6.87255394469746       -1.14342540302833        0.94378662460726
C            7.81368358391399       -2.06887695493445        1.55863428660476
C            7.38594354326809       -3.35686517546666        1.88022741069894
C            8.25312878296117       -4.25824135016947        2.46696674570345
C            9.55860045703969       -3.88697537301061        2.74723875732674
C            9.98693147016149       -2.60390364485272        2.44681932937439
C            9.12268647403147       -1.69757172636836        1.86121563873615
C            7.10499607956949       -0.05505150070046        0.11855791348103
C            8.34031973897106        0.48661206577258       -0.43528961614396
C            9.23896046705675       -0.35894661010829       -1.08557478566221
C           10.40854361843724        0.14488108812048       -1.62206966124922
C           10.69683618173726        1.49695771069443       -1.52072065223040
C            9.81211772055127        2.34231766711064       -0.87197853664631
C            8.64105133823080        1.84362841113557       -0.33138021853596
N            5.86605290525393        0.49136570861279       -0.13749867768295
C            5.62146656757343        1.65581192350338       -0.89251441424299
C            4.91114445000758        2.70805241823857       -0.32428333829725
C            4.68001544900902        3.85532668720941       -1.06095731208587
C            5.16097296592139        3.96116004840139       -2.35615144726707
C            5.86994703760594        2.91270582053603       -2.91906079991440
C            6.10141755609826        1.75793844785177       -2.19322838806440
C            2.83649124388652        0.35663404913243       -0.65068545102441
C            1.46225217776103        0.48524251882822       -0.64508564723117
C           -1.40722967727119        0.83240434474254        1.60344197022827
C           -2.77928858646555        0.96621860798478        1.61013055288658
N           -5.56058473409717        1.75769330456426        1.13331368146290
C           -6.89948075929982        1.58023855462211        0.96378264918976
C           -7.95215487058396        2.45232198851081        1.36095088207776
C           -7.68645746475156        3.66908156182078        1.99923188248652
C           -8.71406388513544        4.51466651641212        2.33643887067992
C          -10.02547333686458        4.15266080350437        2.03276812426173
C          -10.29884998311260        2.95614744391736        1.41136398191141
C           -9.27701825497241        2.05934812268126        1.06117166829140
C           -9.53587812100773        0.77176379498975        0.43879442861925
C          -10.84261396581021        0.31241099039403        0.21684455700928
C          -11.09998809214292       -0.92314235802918       -0.32950101468326
C          -10.04860091158198       -1.77108676374664       -0.66430170940288
C           -8.75378874327346       -1.35677096154905       -0.46923208936121
C           -8.46854447061317       -0.08817471493048        0.05757228477092
C           -7.14629695662489        0.39094127978556        0.28221407601028
C           -5.91321518560139       -1.45238203452137       -2.02132549157205
C           -5.57045201669230       -2.59967392113739       -2.70845514474071
H           -3.95251101282783       -4.25332400904485       -0.21871501511136
H           -4.58010812814716       -2.20571468887938        1.01118121166787
H           -3.44383538377306       -0.19017343423505       -1.50562149778132
H           -1.01829616509641       -0.44247982091285       -1.50436648305188
H            0.81561504827756       -0.59027320161646        2.47654364625864
H            3.26977613271330       -0.83521324534208        2.46358426569892
H            6.34810729803403       -3.63673064539453        1.65472395468013
H            7.88697120247333       -5.26535539592669        2.70397793216562
H           10.21462970973409       -4.60966752956922        3.20609631888351
H           10.98438106282196       -2.32386225787908        2.68100491728997
H            9.45099025934755       -0.70836080487039        1.64952725625116
H            9.00467811906374       -1.42093946319925       -1.16363607205401
H           11.09647210897441       -0.53275846071013       -2.11672673305519
H           11.61621755108913        1.87428251200293       -1.93066534470395
H           10.04236258641652        3.38331892329553       -0.77226956287456
H            7.96422662569201        2.49776196569896        0.19054267383916
H            4.54976845072759        2.61913057202315        0.68616850794043
H            4.13991464280447        4.67398567622170       -0.61835137684928
H            4.99906104332707        4.86404670240424       -2.92514598403386
H            6.25731347638013        2.99177206881248       -3.92755226980908
H            6.65327445377137        0.93348333868347       -2.62882931296519
H            3.38837631740257        0.60959277885157       -1.55322977191382
H            0.96274257553495        0.87556745517664       -1.53550390935647
H           -0.83647459109249        1.15888832959199        2.45285838378688
H           -3.29106750511355        1.38733494947578        2.46116033413568
H           -6.67056943861732        3.92989647406177        2.18583769446304
H           -8.53173707015450        5.46425868136121        2.80078386432579
H          -10.85479711009893        4.81379950824547        2.27107353933242
H          -11.33913213872014        2.70611214109860        1.19208622144965
H          -11.68587388639395        0.90894723265965        0.50672388805211
H          -12.11735931778570       -1.27769921167851       -0.44096920216826
H          -10.23908739927567       -2.78757846504324       -1.01001355349044
H           -7.93797425308519       -2.04697896522728       -0.66517543215535
H           -6.49049568762563       -0.67791404727638       -2.49817813122932
H           -5.86134413422154       -2.72469564137160       -3.73272763203311
