140
 xtb: 6.7.1 (edcfbbe)
C            5.78670632261519       -4.58461839240026        2.69344822794563
C            6.39828295492783       -3.54539536579595        1.74891758636459
C            7.58887616209788       -2.88915287717204        2.46526333942986
C            6.88871454195788       -4.27558268438116        0.48924243825607
C            5.40659059947787       -2.46439177191323        1.34779670650197
C            4.09004541929691       -2.43245164493882        1.79571730227417
C            3.22327801340731       -1.42292800778115        1.42527093124242
C            3.64235433681623       -0.39648555449578        0.58021817585550
N            2.74932484693671        0.60638114211255        0.20624635394918
C            3.18127463792112        1.90448756256090       -0.06114106278535
C            2.49581276934517        2.68580969033684       -0.99306485191497
C            2.89895671720245        3.97677968300931       -1.25541281310951
C            3.99696861561936        4.55032138530423       -0.61486404889969
C            4.39794704654587        5.98017043546875       -0.94165639336571
C            5.62758776467364        6.44355256399780       -0.15443861031749
C            3.22890001263189        6.91594000382499       -0.59875470728649
C            4.72325007631325        6.08245531461612       -2.43956413606898
C            4.67186025509647        3.76375198227858        0.31330336142893
C            4.27507831924096        2.47064631429198        0.59324385142049
C            1.38442140954004        0.30324868951297        0.09918971417591
C            0.43727853848699        1.04449172413440        0.86598617000823
C            0.81673370014659        2.00873612398526        1.80340199827225
C           -0.11284062676101        2.68674520810269        2.58263213209052
C           -1.46395866691731        2.39823802799452        2.49133134171347
C           -2.53453925000353        3.10382909702288        3.30685844059225
C           -1.95633855236373        4.18431781757274        4.22583134297585
C           -3.26917363820693        2.07522162397018        4.17976368851595
C           -3.53033114372057        3.77290530444433        2.34699485278238
C           -1.84907116000244        1.39754686111445        1.59472345562895
C           -0.94899816248658        0.73202622517388        0.76207257942116
C           -1.36625774736689       -0.31736215431766       -0.11543166839543
N           -2.72995045271426       -0.62516988879556       -0.22164804981564
C           -3.62976184145205        0.37937244334092       -0.57463256399146
C           -4.93821774280454        0.40356667484074       -0.08629253100005
C           -5.79507475145715        1.42426556989596       -0.43697633567186
C           -5.39842902235179        2.46649405436917       -1.27512096339084
C           -6.38736583361338        3.56737114265560       -1.62405335329306
C           -6.83815897972235        4.26561334268374       -0.33216703043132
C           -5.78602572599524        4.62642234723180       -2.55279158818296
C           -7.60230140573102        2.94544402871039       -2.32922168912166
C           -4.09099846100387        2.43612015713286       -1.74904642776700
C           -3.22209266393053        1.41721165227774       -1.41127654005198
C           -3.15872872341543       -1.92445800903703        0.04348262108218
C           -2.47320820576086       -2.70876139748942        0.96987523512644
C           -2.87536979798033       -4.00287456170429        1.23549520919423
C           -3.97422534201627       -4.56974464209078        0.59839213589104
C           -4.45334779139327       -5.98773706424602        0.86631149293396
C           -5.89942082437714       -5.93979997391891        1.38260753357923
C           -4.39518160451328       -6.79233842049844       -0.44115457785360
C           -3.59771043359658       -6.71186590680832        1.91019784749459
C           -4.64938866980149       -3.77780107840087       -0.33050442106811
C           -4.25590371840614       -2.48751334513392       -0.61193356517122
C           -0.41907132308250       -1.05609443810055       -0.88490108351052
C           -0.79810172152364       -2.01687306760108       -1.82600059404870
C            0.13169644255917       -2.68924194888855       -2.61006169431221
C            1.48279336746693       -2.40049371596415       -2.51820943372640
C            2.55211496895064       -3.09561780886054       -3.34455839855551
C            3.56236916990662       -3.75981955489454       -2.39659734534766
C            1.97481284978662       -4.17754168237988       -4.26236650403736
C            3.27007263041767       -2.05703144123858       -4.21988802403743
C            1.86813092109594       -1.40620360285661       -1.61452365944261
C            0.96713212059682       -0.74424399352959       -0.77994008334761
C            4.95677832211701       -0.42863593461734        0.10870958524261
C            5.81158512023742       -1.43945543077019        0.49249309875631
H            6.54769883004421       -5.35223153045801        2.87838301243090
H            4.95435998741146       -5.10392789379230        2.17237186388752
H            5.46890548678628       -4.14765429714500        3.57382058134780
H            8.11502020614062       -2.20181072219243        1.76689493178483
H            7.27743674758605       -2.38602288770658        3.30693883744573
H            8.32002487144626       -3.67888343860923        2.70552601828364
H            7.36861865265119       -3.58388458982552       -0.25448743960130
H            6.02664263296992       -4.71432711195654       -0.08781438701885
H            7.57785367409976       -5.06130810908476        0.68252011461664
H            3.73057721620435       -3.20251678353065        2.44057470328874
H            2.21976714263225       -1.41565948318590        1.80336822237778
H            1.64068020925868        2.26906675088345       -1.50028869867262
H            2.33279821224328        4.55064030556242       -1.97429592589428
H            5.85883351192164        7.47734704725364       -0.42207692178514
H            5.42928144879929        6.43063671534805        0.92568095793434
H            6.48346625923226        5.83262399510105       -0.36860777035610
H            2.96731277935119        6.83741995624306        0.46728839124083
H            2.33314050022959        6.67880021270170       -1.16866080092174
H            3.49029759211189        7.95562574182835       -0.79689661251404
H            5.01923984198652        7.10522526602467       -2.67790971263092
H            5.52460563283097        5.41275461330893       -2.68669341040229
H            3.85102926501423        5.83707818215045       -3.04069327791298
H            5.51521259619747        4.16346749173086        0.85768946225127
H            4.80151750161128        1.90601265006346        1.34953059243567
H            1.85793372954171        2.24112213572839        1.94938335099653
H            0.24805667847665        3.43897143265071        3.26934022619920
H           -2.77361852425912        4.67212877993180        4.76938162122903
H           -1.44354608975490        4.95226431913273        3.64924462061932
H           -1.27809728161066        3.75982294900036        4.94942365145787
H           -2.57723973472120        1.58011562140854        4.84158678550222
H           -3.76968354803024        1.32596047514479        3.56838627863514
H           -4.03527996853268        2.57661659334405        4.78116606461590
H           -4.30800255444822        4.29802601570586        2.90241583803687
H           -4.01369261498382        3.04634802198959        1.69453297273915
H           -3.01683209356039        4.49829980509144        1.71158352238610
H           -2.89253544260539        1.12522176646359        1.54515150274316
H           -5.27306128033993       -0.36903193090197        0.58234027954244
H           -6.79458541901250        1.41088088684321       -0.04351874920279
H           -7.32601698187601        3.57407688845631        0.32994004330828
H           -5.97895274466048        4.69875340960537        0.16766867588125
H           -7.53572065690407        5.06739808379595       -0.58141676078311
H           -6.52399928824222        5.38756919060290       -2.78206560658516
H           -4.92555840842984        5.11671620562189       -2.09627230165563
H           -5.46089121667115        4.18697573727238       -3.50780186474468
H           -8.30542610608204        3.72288896175010       -2.62001752951410
H           -7.27787569794247        2.43191792390306       -3.25045929397733
H           -8.10249598511041        2.23056362908360       -1.70553081626076
H           -3.71713302969263        3.21187555639894       -2.40644080935200
H           -2.20764300337377        1.41373555700071       -1.79822572217087
H           -1.62759187427479       -2.28655152657995        1.49287510262531
H           -2.32142189618104       -4.56059049207961        1.97072094312414
H           -6.26300785056529       -6.94220172787104        1.58935178987811
H           -6.57067647158430       -5.48481505452051        0.64787583118202
H           -5.96115074637203       -5.35183338458893        2.29648209674441
H           -3.37816992375671       -6.80650589516340       -0.82222780209285
H           -5.04069676374619       -6.36058815463481       -1.20108288697765
H           -4.71563489131367       -7.81557174881601       -0.26194167361740
H           -2.57252281206094       -6.79277611020168        1.58730152111943
H           -3.63665309880835       -6.18960470465432        2.87056350425762
H           -3.99449461726269       -7.71361136674686        2.06572682434165
H           -5.50049059364536       -4.17352909659684       -0.86513784527459
H           -4.78271643938280       -1.91159520991775       -1.36154796584555
H           -1.83844236512972       -2.25231520975776       -1.95536242868037
H           -0.22813945971741       -3.44805458946346       -3.27633648030633
H            4.04156298939214       -3.04796222282422       -1.70945423056620
H            3.04690652586983       -4.50136365244672       -1.71714282825920
H            4.33156171186888       -4.30240455647210       -2.91520550532773
H            1.29599268496461       -3.77323021898408       -4.95307610853433
H            1.46719555209769       -4.96352261869428       -3.65172843256155
H            2.79420057625037       -4.68137309152274       -4.77512609440928
H            3.78020741601648       -1.32862629709786       -3.58002229195813
H            4.04931934238438       -2.57933570765152       -4.79220889287751
H            2.58641800508842       -1.58977669454320       -4.85048116345793
H            2.91231241342289       -1.13817393511461       -1.54586764919314
H            5.29487688157176        0.35037595822605       -0.57692162881742
H            6.81790932332609       -1.41799305857306        0.07825550367393
