  50
 
 C         -3.4041297919        1.8581331912       -1.2623450201
 C         -2.8419175217        1.1793628638        0.0001282741
 C         -3.4040363203        1.8581444160        1.2626374867
 C         -3.2841674371       -0.2707463890        0.0001550648
 C         -4.6293283763       -0.6090924294        0.0001215399
 C         -5.0474303901       -1.9284328447        0.0001446255
 C         -4.1090318190       -2.9462759440        0.0002037859
 C         -2.7657370201       -2.6355889988        0.0002850949
 C         -2.3465387933       -1.3042483759        0.0002822865
 N         -1.0005185375       -1.0351512512        0.0003876520
 C         -0.4545372388        0.2311863700        0.0001425708
 C         -1.3272151785        1.3280091375        0.0000654835
 C         -0.7814096589        2.6023239858       -0.0000411015
 C          0.5800473799        2.7988593684       -0.0001287595
 C          1.4433930989        1.7061566442       -0.0001535832
 C          0.9440500763        0.4036253886       -0.0000019146
 C          1.8942274001       -0.7900266035       -0.0001746970
 C          1.6872289737       -1.6154034377        1.2952985856
 C          1.6877614779       -1.6143086813       -1.2963367308
 C          3.3592912712       -0.3754851230        0.0000195724
 C          4.3504906696       -1.3463928277        0.0003088422
 C          5.6934170113       -1.0121991415        0.0002876423
 C          6.0700892524        0.3203198703        0.0000681965
 C          5.1034410878        1.3036479033       -0.0001049294
 C          3.7502322721        0.9641009297       -0.0001607596
 N          2.7979699581        1.9494858205       -0.0003575601
 H         -4.4878314748        1.7832997716       -1.2909926024
 H         -3.0026550853        1.3749145156       -2.1511602293
 H         -3.1343240272        2.9100368989       -1.2927044456
 H         -3.0025221329        1.3749161883        2.1514302232
 H         -4.4877382791        1.7833346959        1.2913508382
 H         -3.1341970539        2.9100403887        1.2929817626
 H         -5.3771490938        0.1698448200        0.0000897314
 H         -6.1018115930       -2.1599519813        0.0001228313
 H         -4.4234576119       -3.9794695170        0.0001992343
 H         -2.0219374378       -3.4209614100        0.0003160716
 H         -0.3856513907       -1.8303174340        0.0008704671
 H         -1.4261269249        3.4672363273       -0.0000330202
 H          0.9900254455        3.7984429245       -0.0001988699
 H          1.9668592415       -2.6565336790        1.1497668794
 H          0.6669115423       -1.5762676182        1.6656542230
 H          2.3224902457       -1.2061266224        2.0793461165
 H          2.3188488668       -1.2005166133       -2.0813342556
 H          1.9731366045       -2.6541622024       -1.1531131258
 H          0.6663292107       -1.5799692985       -1.6639313533
 H          4.0737076446       -2.3894734845        0.0006145404
 H          6.4423011367       -1.7895766134        0.0004620981
 H          7.1151932421        0.5922617299        0.0000919613
 H          5.3821095463        2.3483886541       -0.0001938895
 H          3.1018495333        2.9106037176       -0.0003668343
