  80
 
 C          0.8009797979       -0.4615755543        0.5858781150
 C          1.6936309828       -0.1415293066       -0.3643334433
 C          3.1371290004       -0.1668798203       -0.2369883110
 C          3.9163911080        0.1306614974       -1.3611396241
 C          5.2937278859        0.1289262760       -1.3045724266
 C          5.9420904158       -0.1774227890       -0.1107651698
 N          7.3431636556       -0.1816186827       -0.0445327793
 C          8.1902256799       -0.8566405295       -0.9004224110
 C          7.8871053828       -1.7029302554       -1.9581431821
 C          8.9381388721       -2.2785116586       -2.6462545884
 C         10.2629721303       -2.0297236496       -2.2920281387
 C         10.5703733824       -1.2077614976       -1.2259325982
 C          9.5309081326       -0.6176999691       -0.5178538908
 C          9.4797496818        0.2512438541        0.6248036361
 C         10.4519704686        0.8405669062        1.4232415613
 C         10.0507727298        1.6643428787        2.4562444434
 C          8.6997203636        1.9152088846        2.6892946117
 C          7.7142169372        1.3406911737        1.9094114145
 C          8.1103122687        0.4926924464        0.8842667866
 C          5.1821543214       -0.4778179902        1.0177153901
 C          3.8050981572       -0.4691173683        0.9542957698
 C         -0.6419896894       -0.4315682004        0.4578839645
 C         -1.3097581650       -0.0140592834       -0.6986667309
 C         -2.6855308381        0.0089457780       -0.7571432448
 C         -3.4582825310       -0.3878947902        0.3352076490
 C         -4.9272646844       -0.3852411574        0.2716770513
 C         -5.6302619276        0.6563774955       -0.2283674979
 C         -5.0032688689        1.9471760740       -0.5615173540
 C         -5.3255037625        2.5955588344       -1.7528354144
 C         -4.7559563885        3.8157179123       -2.0661676308
 C         -3.8670268827        4.4153330307       -1.1889242619
 C         -3.5546557301        3.7883896804        0.0066835222
 C         -4.1176052109        2.5655767334        0.3196012583
 C         -7.0807415994        0.5831579003       -0.4756315769
 C         -7.6418284459       -0.5069776052       -1.1385971456
 C         -9.0006126241       -0.5544250419       -1.3864007113
 C         -9.8215640853        0.4842473938       -0.9774146957
 C         -9.2723796918        1.5782228272       -0.3286448236
 C         -7.9123191473        1.6320492815       -0.0866002928
 C         -5.5797849602       -1.6001228329        0.7918394959
 C         -6.6631630801       -1.5172821084        1.6645985988
 C         -7.2543328986       -2.6641131367        2.1602344256
 C         -6.7743095186       -3.9114223696        1.7942339548
 C         -5.6894581695       -4.0046994805        0.9377523089
 C         -5.0916356115       -2.8591313911        0.4461845148
 C         -2.8002157550       -0.8312631409        1.4825951263
 C         -1.4237627668       -0.8418741718        1.5441253740
 H          1.1525251386       -0.7822991780        1.5578314234
 H          1.3410567973        0.1655716395       -1.3400115329
 H          3.4266901427        0.3741034697       -2.2935612708
 H          5.8770280889        0.3788688030       -2.1786045236
 H          6.8637327831       -1.9141710360       -2.2298474667
 H          8.7281722257       -2.9391688284       -3.4749813841
 H         11.0570103430       -2.4962679443       -2.8567499256
 H         11.5968454291       -1.0280277449       -0.9424522536
 H         11.4995412050        0.6591698547        1.2335032827
 H         10.7913818251        2.1305861047        3.0896363025
 H          8.4168015684        2.5767388373        3.4953711785
 H          6.6709174885        1.5541991528        2.0871696689
 H          5.6823908847       -0.7308119966        1.9411178678
 H          3.2429691128       -0.7051353988        1.8442290134
 H         -0.7472786112        0.2982526749       -1.5649799487
 H         -3.1776806551        0.3268428815       -1.6648924506
 H         -6.0179639352        2.1290620986       -2.4397916691
 H         -5.0081681840        4.3022094496       -2.9977229357
 H         -3.4241215831        5.3700141610       -1.4329896438
 H         -2.8707672001        4.2564968563        0.7002565894
 H         -3.8809107272        2.0866292298        1.2585120010
 H         -7.0035165223       -1.3134102514       -1.4691891125
 H         -9.4212903065       -1.4048890286       -1.9037011761
 H        -10.8841337758        0.4435526673       -1.1683438817
 H         -9.9066193599        2.3941408305       -0.0122261504
 H         -7.4859969427        2.4864275447        0.4206912334
 H         -7.0333994841       -0.5468903356        1.9617415676
 H         -8.0922760140       -2.5846150112        2.8380106853
 H         -7.2401575191       -4.8068172556        2.1795227348
 H         -5.3068559083       -4.9743971327        0.6525102980
 H         -4.2462652640       -2.9342673560       -0.2238047679
 H         -3.3814855762       -1.1518465404        2.3361270817
 H         -0.9357977857       -1.1756352943        2.4497251363
