  104
 
 C         -8.0048764712        1.3781579844       -0.0577895319
 C         -7.0127065864        2.5549886196       -0.1157355546
 C         -7.7752281985        3.8896880670       -0.2144867900
 C         -6.1442678183        2.4005953684       -1.3509156754
 C         -6.7373557422        2.3803256849       -2.6059104728
 C         -5.9976479159        2.2504090605       -3.7674849086
 C         -4.6213672196        2.1382834366       -3.6831949161
 C         -4.0058287118        2.1535419953       -2.4490611048
 C         -4.7520376568        2.2817921753       -1.2733583691
 N         -4.1041273159        2.2915511449       -0.0490386019
 C         -2.6853216431        2.1723834932       -0.0158618274
 C         -1.9007483849        3.3292549282       -0.0368155232
 C         -0.5211226182        3.2650175899       -0.0005726670
 C          0.0704740728        2.0112920424        0.0672157192
 C         -0.7146641395        0.8369094916        0.0544586479
 C         -2.0994519883        0.9174065982        0.0195920996
 C          0.2009100989       -0.2715603487        0.0615874199
 C          0.0162859698       -1.6467819404        0.0786816593
 C          1.1373563306       -2.4602142397        0.1085991718
 N          0.9899638419       -3.8768712885        0.1183249863
 C          0.9532942118       -4.5561226070       -1.0885362256
 C          1.0122928809       -3.8384603361       -2.2871958026
 C          0.9760363599       -4.4847484282       -3.5050672338
 C          0.8807448347       -5.8641485630       -3.5497328365
 C          0.8239256478       -6.5761301364       -2.3652152044
 C          0.8577327297       -5.9517115649       -1.1258051886
 C          0.8007882952       -6.7920251044        0.1368612406
 C         -0.5045696696       -7.6094219718        0.1308630627
 C          2.0186362178       -7.7354186387        0.1540875347
 C          0.8351862876       -5.9342152036        1.3884913891
 C          0.7789328137       -6.5413831924        2.6356586144
 C          0.8123382566       -5.8129015092        3.8109775772
 C          0.9041579656       -4.4339517559        3.7487768838
 C          0.9620755656       -3.8045073125        2.5229236749
 C          0.9300242523       -4.5391554014        1.3335522037
 C          2.4217679087       -1.9090892209        0.1416896381
 C          2.6216034069       -0.5421794514        0.1267259475
 C          1.5029609725        0.2772287077        0.0644218370
 N          1.4137615511        1.6623517284        0.0764880776
 C          2.4832865942        2.5477436772        0.0813462640
 C          2.4886732486        3.6547828498        0.9379558544
 C          3.5552495968        4.5344912761        0.9402607205
 C          4.6298355694        4.3188950955        0.0923570151
 C          4.6346010078        3.2217183269       -0.7479529212
 C          3.5770079798        2.3377062087       -0.7664930195
 S          6.0490936985        2.9282678413       -1.8148832237
 O          6.0518851167        1.5280170663       -2.1673847376
 O          6.0383387951        3.8611836906       -2.9096043266
 C          7.4601438229        3.2442781266       -0.7538550597
 C          8.5414751518        2.3811430576       -0.7616001380
 C          9.6237428278        2.6384438818        0.0681878713
 C          9.6140755452        3.7447247960        0.9047700017
 C          8.5217819497        4.6007258499        0.9172187973
 C          7.4503709555        4.3462463329        0.0797140153
 S          6.0272300902        5.4375405862        0.0757489098
 O          6.0227183785        6.1888712172        1.3083782350
 O          6.0132000767        6.2070687576       -1.1404406145
 C         -4.7949588046        2.4245297646        1.1442681463
 C         -4.0917341543        2.4224893764        2.3528637423
 C         -4.7494413357        2.5544842743        3.5579478440
 C         -6.1258894434        2.6911864427        3.5793943525
 C         -6.8238493944        2.6893690974        2.3852305450
 C         -6.1878984991        2.5571448325        1.1582798372
 H         -8.6239653577        1.3483824624       -0.9501952280
 H         -7.4605537983        0.4378741190        0.0142836387
 H         -8.6579119936        1.4634668193        0.8063891396
 H         -8.3964052935        3.9164842634       -1.1055398354
 H         -8.4156591335        4.0358442833        0.6509623047
 H         -7.0690299441        4.7170254858       -0.2635086235
 H         -7.8102764781        2.4692519175       -2.6871168399
 H         -6.4924913536        2.2389476601       -4.7272253190
 H         -4.0234807240        2.0385200470       -4.5775242430
 H         -2.9317411321        2.0658259729       -2.3907814646
 H         -2.3941256359        4.2881008253       -0.0873995422
 H          0.0672322249        4.1673664546       -0.0449141813
 H         -2.7115845307        0.0290948207        0.0112782196
 H         -0.9723772769       -2.0784986327        0.0730645552
 H          1.0885493366       -2.7623483394       -2.2597098381
 H          1.0231184835       -3.9083277918       -4.4176311959
 H          0.8523516318       -6.3829243922       -4.4963990920
 H          0.7530888255       -7.6522889624       -2.4153565604
 H         -0.5571996523       -8.2503434095       -0.7448349047
 H         -0.5736852719       -8.2370687858        1.0149773996
 H         -1.3622928455       -6.9389180949        0.1176091432
 H          2.0229161739       -8.3783692014       -0.7218666968
 H          2.9388811325       -7.1532519418        0.1570567669
 H          2.0084387307       -8.3652362931        1.0394813198
 H          0.7085780107       -7.6168690210        2.6991224109
 H          0.7672418031       -6.3187891955        4.7639388357
 H          0.9308435307       -3.8450032999        4.6540722319
 H          1.0334311469       -2.7285728435        2.4808254038
 H          3.2696129319       -2.5760549793        0.1823746434
 H          3.6204962190       -0.1387697394        0.1693238797
 H          1.6662063915        3.8057064951        1.6193357561
 H          3.5862389183        5.3841430289        1.6037489660
 H          3.6124119867        1.5046760598       -1.4502353594
 H          8.5093795742        1.5214747292       -1.4122686588
 H         10.4713574837        1.9710470587        0.0619856138
 H         10.4538610812        3.9416355337        1.5527030029
 H          8.4740703883        5.4611600766        1.5658989714
 H         -3.0181737256        2.3139052812        2.3421458710
 H         -4.1847311490        2.5498949925        4.4789162542
 H         -6.6535368917        2.7964011030        4.5156507051
 H         -7.8979529837        2.7941781060        2.4174594876
