  97
 
 C          3.1327320741       -0.8269093520        2.8430416831
 C          3.1092380579       -2.1737804887        2.1315806073
 C          1.6971195136       -2.7459297895        2.0315318339
 C          1.6711788408       -4.0519094661        1.2402714386
 C          0.2503097454       -4.5777437949        1.0452883393
 C          0.1667089621       -5.8346002090        0.1729572369
 C          0.7078887703       -5.7092087178       -1.2543440418
 C         -0.1413834394       -4.8595260311       -2.2030474323
 N         -0.1641745360       -3.4592334060       -1.8493155888
 C         -1.3324613792       -2.7930418378       -1.4921690512
 O         -2.4292580528       -3.3154985211       -1.5079346798
 C         -0.9071724504       -1.4420965940       -1.1238481109
 C         -1.5238378664       -0.2659100560       -0.6362207056
 C         -2.8661796088        0.0744989783       -0.4071526903
 C         -3.9338371629       -0.8118506713       -0.7025657242
 C         -5.2326044555       -0.4489525330       -0.4742798623
 C         -5.5477753091        0.8156999140        0.0473148486
 N         -6.8713085042        1.1807187705        0.2695063088
 C         -7.4502664969        2.3844331132       -0.0878303451
 C         -6.9072742447        3.4547021467       -0.7856786532
 C         -7.7253966691        4.5389598151       -1.0436697158
 C         -9.0556441141        4.5601955015       -0.6331263183
 C         -9.6118009301        3.4828808855        0.0317876175
 C         -8.8096182564        2.3849587430        0.3029628127
 C         -9.0542806463        1.1144889860        0.9316245489
 C        -10.1705717516        0.5467503042        1.5267852353
 C        -10.0556676513       -0.7164671942        2.0772858524
 C         -8.8421904576       -1.3988624797        2.0565493929
 C         -7.7157189200       -0.8520794798        1.4703521957
 C         -7.8335737411        0.4017013357        0.8859697340
 C         -4.5046078797        1.7064787660        0.3429408343
 C         -3.2036893188        1.3457990904        0.1277412407
 S         -0.2504958895        0.9254013040       -0.3110860211
 C          1.0564279216       -0.1510426856       -0.8353408844
 C          2.3929045310        0.2626323668       -0.6922561339
 C          3.4827818427       -0.5590683602       -1.0732427204
 C          4.7725602203       -0.1696191608       -0.8328065025
 C          5.0509553804        1.0639433468       -0.2264195709
 N          6.3640026393        1.4331387677        0.0467380715
 C          7.3108314384        0.6314260780        0.6573258962
 C          7.1801966855       -0.6487182730        1.1781414548
 C          8.2890821109       -1.2156660651        1.7783794254
 C          9.4964899549       -0.5284692235        1.8723781842
 C          9.6226272198        0.7590021811        1.3840782093
 C          8.5237689571        1.3484313791        0.7773127319
 C          8.2899361466        2.6459023352        0.2015054977
 C          9.0913238340        3.7607316516        0.0076153012
 C          8.5469250445        4.8652746106       -0.6213451884
 C          7.2291073153        4.8568955096       -1.0708640217
 C          6.4118379870        3.7565607384       -0.8901857136
 C          6.9433464359        2.6564820825       -0.2313277680
 C          3.9867384464        1.9130668226        0.1085471736
 C          2.6950886860        1.5220368787       -0.1140816279
 C          0.4811160480       -1.3688127661       -1.2570774609
 C          0.9593439906       -2.6538274576       -1.7835473596
 O          2.0679217993       -3.0102888088       -2.1317774856
 H          4.1473085952       -0.4369454748        2.8974310179
 H          2.7466783021       -0.9224624953        3.8556827092
 H          2.5189776265       -0.1048897203        2.3084474888
 H          3.5121427241       -2.0543139980        1.1228640297
 H          3.7486856408       -2.8807944551        2.6657660829
 H          1.0531604103       -2.0138876391        1.5368215845
 H          1.2955061896       -2.9118441865        3.0342440359
 H          2.2680650869       -4.8062613883        1.7590648702
 H          2.1402608687       -3.8711040113        0.2732925395
 H         -0.3751839052       -3.7893353610        0.6251642370
 H         -0.1703168077       -4.8219122083        2.0250954934
 H          0.7261905932       -6.6315664512        0.6704049312
 H         -0.8793859219       -6.1477570515        0.1231099137
 H          1.7231900806       -5.3142244650       -1.2429508167
 H          0.7530410187       -6.7116053961       -1.6867207051
 H         -1.1829645853       -5.1917974387       -2.1938696734
 H          0.2592482206       -4.9560899364       -3.2181476359
 H         -3.7151850016       -1.7808249580       -1.1192218845
 H         -6.0332922843       -1.1240185647       -0.7363769497
 H         -5.8855873130        3.4389625536       -1.1322213808
 H         -7.3244673531        5.3853740832       -1.5809208720
 H         -9.6619646601        5.4265288765       -0.8508627390
 H        -10.6493163189        3.4898602587        0.3292556821
 H        -11.1054401491        1.0850209450        1.5627220370
 H        -10.9137616563       -1.1783599098        2.5419325709
 H         -8.7768945755       -2.3751771314        2.5127994886
 H         -6.7753382541       -1.3806193052        1.4822474343
 H         -4.7371222435        2.6654750565        0.7815210022
 H         -2.4084232631        2.0305481662        0.3822461087
 H          3.2893387929       -1.4985574898       -1.5640649108
 H          5.5929011656       -0.8010397130       -1.1399425333
 H          6.2435016633       -1.1821721794        1.1315441533
 H          8.2144740132       -2.2119756801        2.1875158125
 H         10.3409316252       -1.0067094166        2.3454510690
 H         10.5523618357        1.2993014317        1.4771737006
 H         10.1194189972        3.7600954515        0.3362679418
 H          9.1531298801        5.7445471021       -0.7793537082
 H          6.8378688288        5.7266491525       -1.5770926757
 H          5.3998313704        3.7514728203       -1.2645909996
 H          4.1939895426        2.8575483640        0.5890378692
 H          1.8814809329        2.1686835551        0.1793973037
