  75
 
 C          2.7168282908        5.1405892525       -0.2964805704
 C          2.8475061194        3.9565413202        0.6665064489
 C          2.7313533644        4.4933939703        2.1014411119
 C          4.2293314466        3.3198975526        0.4589210404
 C          1.7749961983        2.9011987057        0.4464768353
 C          0.8058436811        3.0024947687       -0.5453988484
 C         -0.1642213092        2.0311095053       -0.7091350270
 C         -0.1946639209        0.9260119007        0.1308569876
 N         -1.1996827010       -0.0504702363       -0.0036983525
 C         -1.0444235049       -1.4312437013        0.0291254617
 C          0.1700005515       -2.1581684628        0.0827182505
 C          0.1511187345       -3.3836441109        0.7926599538
 C          1.2996513176       -4.0196820994        1.1408044483
 C          2.5795374485       -3.4977134601        0.7551105325
 C          3.7729933617       -4.0926810137        1.1582424838
 C          4.9968332306       -3.6037174325        0.7299812723
 C          5.0669404972       -2.5288911816       -0.1681082630
 C          6.3011187172       -2.0392748572       -0.6638333210
 C          6.3343314323       -0.9994738400       -1.5752072224
 C          5.1685448516       -0.4225356100       -2.0332547350
 C          3.9053686847       -0.8708115906       -1.5629774262
 C          2.6987940314       -0.3452010153       -2.0363679337
 C          1.4831114421       -0.7736557802       -1.5251195929
 C          1.4194631108       -1.7250932497       -0.5085938382
 C          2.6177080048       -2.3705982046       -0.1084912159
 C          3.8617075030       -1.9198293259       -0.6080042193
 N         -2.2363660329       -2.0253107485        0.0512918675
 C         -3.1696067684       -1.0584964900        0.0038387595
 C         -4.5874094156       -1.3845319047        0.0237964824
 C         -5.0115095765       -2.5916991307       -0.5331429731
 C         -6.3491742701       -2.9360271141       -0.5233633648
 C         -7.2825526949       -2.0857391090        0.0488288677
 C         -6.8671993439       -0.8947116165        0.6228853946
 C         -5.5303429172       -0.5435724241        0.6143886329
 C         -2.5493072256        0.1983573731       -0.0253702999
 C         -3.1381906846        1.5262439221       -0.0572964525
 C         -2.7395109656        2.5177454917        0.8412016455
 C         -3.3194277402        3.7713770587        0.7971889496
 C         -4.2993268592        4.0569433528       -0.1401981024
 C         -4.7067286786        3.0758064464       -1.0311908213
 C         -4.1347754507        1.8191814673       -0.9913582456
 C          0.7689439467        0.8037572913        1.1249504835
 C          1.7369792493        1.7765433073        1.2686802442
 H          2.8234086746        4.8193602967       -1.3299749489
 H          1.7592928958        5.6416313960       -0.1739836117
 H          3.5036129536        5.8628078036       -0.0884329555
 H          1.7389090720        4.9070960294        2.2696424249
 H          2.9046521421        3.7106837705        2.8345045809
 H          3.4648770735        5.2798774036        2.2650635666
 H          4.3331400474        2.9737399485       -0.5668049200
 H          5.0099990052        4.0516590975        0.6558298896
 H          4.3817926091        2.4705630097        1.1192070849
 H          0.7908665345        3.8451173389       -1.2162219871
 H         -0.8982659120        2.1291036997       -1.4956303340
 H         -0.8109981752       -3.7503652106        1.1182441726
 H          1.2722273991       -4.9206747053        1.7355109224
 H          3.7366526574       -4.9515793362        1.8135903440
 H          5.9125010765       -4.0660827165        1.0697730370
 H          7.2173673744       -2.4987624418       -0.3234900990
 H          7.2870749602       -0.6427713388       -1.9413006657
 H          5.1982699429        0.3753641912       -2.7605144261
 H          2.7170648135        0.4107611578       -2.8080018603
 H          0.5700664138       -0.3725279873       -1.9383810889
 H         -4.2723303543       -3.2450762318       -0.9714629718
 H         -6.6667517145       -3.8702669288       -0.9635214525
 H         -8.3289165334       -2.3537241226        0.0547061342
 H         -7.5889226033       -0.2364099866        1.0846152163
 H         -5.2126513074        0.3766533768        1.0815717977
 H         -1.9885586106        2.2960778696        1.5855536895
 H         -3.0057217554        4.5284756265        1.5008107294
 H         -4.7473797089        5.0388014235       -0.1738330454
 H         -5.4722115042        3.2913815130       -1.7620321533
 H         -4.4481014061        1.0540554889       -1.6868924852
 H          0.7506709720       -0.0504025192        1.7863990868
 H          2.4717299221        1.6489699747        2.0484722981
