  44
 
 O          4.3697258755        2.2175732931       -1.1145926276
 S          3.9130688038        1.5658257271        0.0896558529
 O          4.3129222752        2.1703618865        1.3360825197
 C          4.2437781286       -0.1849633978        0.0554828941
 C          5.4618597987       -0.8064416298        0.0777129049
 C          5.5105173186       -2.1983178403        0.0472946971
 C          4.3193899625       -2.9350430777       -0.0087000548
 C          3.0960499684       -2.3171818630       -0.0337341351
 C          3.0188046448       -0.9035596900       -0.0027166525
 C          1.8640829559       -0.0955868491       -0.0292355180
 C          0.5247420954       -0.4962847608       -0.0991156859
 C         -0.4927007926        0.4373107315       -0.1242276943
 N         -1.8195318738        0.0737956553       -0.2324460518
 C         -2.8591770207        1.0096992774       -0.2953654725
 C         -2.8151782525        2.0862355649       -1.1889472000
 C         -3.8401082273        3.0082854893       -1.2181637052
 C         -4.9353722117        2.8707965602       -0.3749493294
 C         -5.0198047219        1.7808723668        0.4744651281
 C         -3.9962198198        0.8480378833        0.5051747346
 S         -4.1127291530       -0.5546630245        1.5732007134
 C         -3.3024528635       -1.6987975969        0.4986321406
 C         -3.7235711235       -3.0194358767        0.4576787887
 C         -3.1293057709       -3.9066269356       -0.4192401120
 C         -2.1404385608       -3.4605885923       -1.2879406520
 C         -1.7092227203       -2.1512344069       -1.2429062268
 C         -2.2517292996       -1.2591452307       -0.3152646575
 C         -0.1771848444        1.8456324674        0.0587557142
 C          1.1459326413        2.2554980562        0.0943935995
 C          2.1480218288        1.3269559581        0.0271131631
 H          6.3645396226       -0.2168761197        0.1228611765
 H          6.4597525635       -2.7092750956        0.0696180854
 H          4.3731706987       -4.0140307534       -0.0327558224
 H          2.1890301872       -2.9011466152       -0.0782795668
 H          0.3041299056       -1.5508071167       -0.1205107003
 H         -1.9712350667        2.1754911935       -1.8557985405
 H         -3.7897616946        3.8371167447       -1.9069570562
 H         -5.7315176578        3.5976285740       -0.3947193116
 H         -5.8752555864        1.6432398967        1.1167589653
 H         -4.5204713328       -3.3353906700        1.1124432307
 H         -3.4530688961       -4.9348636395       -0.4455440791
 H         -1.7082056953       -4.1379099834       -2.0079364143
 H         -0.9638203435       -1.7962796372       -1.9376222855
 H         -0.9660981996        2.5540382972        0.2394201694
 H          1.3890588293        3.3011663041        0.2044176272
