  75
 
 C          5.4739879415       -4.4906519088       -0.1501167655
 C          6.1010218963       -3.6488911778        0.7597987656
 C          5.6840358562       -2.3411476326        0.9039045982
 C          4.6312219348       -1.8497104735        0.1273128550
 N          4.1895401747       -0.5368470427        0.2735989359
 C          5.0991092105        0.4869762851        0.5488444485
 C          4.7437128013        1.5348999937        1.4009888477
 C          5.6447312128        2.5450794891        1.6717161593
 C          6.9096335321        2.5301599611        1.1003813243
 C          7.2670222049        1.4933015638        0.2530496506
 C          6.3734364297        0.4771053897       -0.0249794717
 C          2.8352760933       -0.2450133089        0.1092102846
 C          1.8768274961       -1.1875380979        0.6148009582
 C          0.5112162266       -0.9248014150        0.4857762056
 C          0.1013228775        0.2261826470       -0.1223038218
 C          1.0599661007        1.1891712923       -0.6402373395
 C          2.4326070115        0.9209930134       -0.4986759975
 C          0.3618549332        2.2431029517       -1.2442811495
 C          0.8020929883        3.4167212283       -1.9036196366
 C         -0.1296916066        4.2945568954       -2.3964552402
 C         -1.5026704437        4.0565360266       -2.2666747341
 C         -1.9582263524        2.8990315812       -1.6182166937
 C         -1.0466842391        2.0151476610       -1.1205609928
 C         -1.3108719850        0.7081461803       -0.3828745548
 C         -2.0514242063       -0.2585311124       -1.2705283857
 C         -1.4770710360       -0.6303752082       -2.4773290437
 C         -2.1169704086       -1.4998336331       -3.3414252854
 C         -3.3588229830       -2.0100921602       -2.9959638297
 C         -3.9474643572       -1.6549100961       -1.8002436865
 C         -3.3048406834       -0.7765379628       -0.9205682943
 N         -3.9035258797       -0.4301775783        0.2774313190
 C         -5.1895268471       -0.9637273283        0.5875106053
 C         -5.2941154717       -2.1688325130        1.2710550654
 C         -6.5443311794       -2.6818268855        1.5698502824
 C         -7.6868801212       -1.9966218794        1.1887881090
 C         -7.5804562330       -0.7948894376        0.5072258259
 C         -6.3337739180       -0.2753368200        0.2046476446
 C         -3.2903151114        0.4129775897        1.1871992883
 C         -3.9189988403        0.7161901352        2.3999910991
 C         -3.3160632463        1.5528179217        3.3161556713
 C         -2.0735977147        2.1044038401        3.0454728203
 C         -1.4475193274        1.8099206657        1.8479770439
 C         -2.0364324765        0.9726524922        0.9120881646
 C          4.0055625710       -2.7008355847       -0.7917532924
 C          4.4260815097       -4.0104844271       -0.9193228359
 H          5.8026488245       -5.5132253000       -0.2573892688
 H          6.9130801543       -4.0192236456        1.3677676275
 H          6.1566528606       -1.6935841555        1.6278441424
 H          3.7620616758        1.5400461737        1.8513409135
 H          5.3615425393        3.3464413753        2.3379741621
 H          7.6098762104        3.3235166558        1.3134634865
 H          8.2464495739        1.4792082940       -0.2019302264
 H          6.6467034845       -0.3220289596       -0.6981542461
 H          2.2229260769       -2.0547116026        1.1523823177
 H         -0.2068745818       -1.6321507696        0.8781150679
 H          3.1627246095        1.6177377486       -0.8844578105
 H          1.8602161186        3.6093389070       -2.0107188831
 H          0.1975679224        5.1948880189       -2.9004147362
 H         -2.2129818587        4.7653323197       -2.6652825942
 H         -3.0209619313        2.7193979043       -1.5186232759
 H         -0.5115979799       -0.2208307579       -2.7371687478
 H         -1.6529386945       -1.7745387936       -4.2765301658
 H         -3.8724733391       -2.6887948207       -3.6606958247
 H         -4.9145676852       -2.0570718033       -1.5402362885
 H         -4.3959691479       -2.6931147383        1.5628689201
 H         -6.6255935918       -3.6182784825        2.1011720231
 H         -8.6607942552       -2.3991399170        1.4233837909
 H         -8.4695942651       -0.2594118037        0.2095756723
 H         -6.2378216610        0.6605341239       -0.3261624598
 H         -4.8867015448        0.2920930742        2.6198239617
 H         -3.8195490180        1.7746521314        4.2454839238
 H         -1.5983180129        2.7603284450        3.7589597058
 H         -0.4815375781        2.2379805408        1.6225325129
 H          3.2051155707       -2.3182232738       -1.4070861292
 H          3.9381279668       -4.6576350220       -1.6333157388
