  83
 
 C         -5.4013765636        3.0529740714       -3.0028055305
 C         -5.5548974959        2.1221996887       -1.8065463152
 C         -5.3537974227        0.6625967121       -2.2081902601
 C         -5.5029771350       -0.3140507426       -1.0265499045
 C         -5.2902245057       -1.7560876465       -1.5210598966
 C         -5.4243417574       -2.7945259177       -0.4094952344
 C         -5.2070953373       -4.2058546827       -0.9404835405
 C         -6.8426994694       -0.1522092784       -0.3486617150
 C         -8.1020490003       -0.3424193912       -0.8672998736
 C         -9.2064907256       -0.1289200058       -0.0483420850
 C         -9.0461822896        0.2712414056        1.2730250316
 C         -7.7872817789        0.4665565712        1.8070272764
 C         -6.6756459623        0.2538017119        0.9934731287
 C         -5.2759162196        0.3717166016        1.2684489339
 C         -4.5942915190        0.7420574931        2.4370621490
 C         -3.2285668722        0.7698380739        2.4333390294
 C         -2.4872494530        0.4235830731        1.2648025884
 C         -1.1185898969        0.4455508803        1.2809214804
 C          0.1157894504        0.4592660501        1.2930599684
 C          1.4794797372        0.4704203538        1.3037639641
 C          2.1935374595        0.8833081354        2.4762766033
 C          3.5525436524        0.9022498716        2.5055726234
 C          4.2760018216        0.5018880484        1.3596796219
 C          3.5734849781        0.0815751307        0.1842872562
 C          2.2201745784        0.0661492840        0.1446865597
 C          4.5592948467       -0.3069925610       -0.8940036595
 C          4.3961956643        0.5677464998       -2.1502643083
 C          4.5348584994        2.0607118636       -1.8606520888
 C          4.3614066895        2.8891951483       -3.1272639529
 C          4.4103635856       -1.7914939859       -1.2769976502
 C          4.5628327363       -2.7344356216       -0.0853853914
 C          4.4018530587       -4.1898291316       -0.5056692672
 C          5.8799221455       -0.0488492507       -0.2081673923
 C          7.1439174722       -0.2151376705       -0.6975843838
 C          8.2398766418        0.0905987519        0.1354213232
 C          9.5462804919       -0.0730604670       -0.3485958273
 N         10.6158834552       -0.2090712941       -0.7503718053
 C          8.0327345898        0.5578777941        1.4477469290
 C          6.7642068665        0.7251091917        1.9406900202
 C          5.6660039234        0.4236935725        1.1174560886
 C         -3.1900168044        0.0522924122        0.0799136033
 C         -4.5495669663        0.0338445105        0.0935585755
 H         -4.4076254918        2.9587657989       -3.4355983056
 H         -6.1334888823        2.8125983044       -3.7708658426
 H         -5.5473414844        4.0876838547       -2.7023961618
 H         -6.5504545201        2.2457761550       -1.3742710053
 H         -4.8251130344        2.3923476360       -1.0399176148
 H         -4.3573698834        0.5425939377       -2.6396374054
 H         -6.0839702874        0.3981569719       -2.9764024047
 H         -6.0218547005       -1.9710629839       -2.3031770144
 H         -4.2953581133       -1.8321150037       -1.9658875753
 H         -4.6932472087       -2.5843406006        0.3744809739
 H         -6.4187128504       -2.7217572716        0.0368129972
 H         -5.3060579443       -4.9346356570       -0.1397240142
 H         -4.2128638065       -4.3032785225       -1.3715103294
 H         -5.9385312364       -4.4414565014       -1.7106777546
 H         -8.2406170867       -0.6528322209       -1.8927919984
 H        -10.2006119437       -0.2757010547       -0.4439194692
 H         -9.9199260248        0.4305976974        1.8880699655
 H         -7.6652720305        0.7772082555        2.8338590057
 H         -5.1475728967        1.0015551144        3.3274990209
 H         -2.6777686694        1.0511234558        3.3188701652
 H          1.6148223490        1.1827488246        3.3378889500
 H          4.0828301527        1.2176314240        3.3918577923
 H          1.6732740260       -0.2461058562       -0.7328740362
 H          3.4129775579        0.3761031891       -2.5862085354
 H          5.1492775700        0.2730977158       -2.8846161240
 H          5.5191646420        2.2575708950       -1.4297148983
 H          3.7849935564        2.3594771259       -1.1243785272
 H          4.4634008030        3.9490877602       -2.9072979883
 H          5.1126177735        2.6188503045       -3.8662949950
 H          3.3778958305        2.7221356703       -3.5616554716
 H          3.4269936754       -1.9401447817       -1.7290839399
 H          5.1637588690       -2.0381785640       -2.0285077761
 H          5.5475543149       -2.5937237238        0.3661128783
 H          3.8134744780       -2.4891154565        0.6708747166
 H          3.4182331207       -4.3557506817       -0.9402137008
 H          5.1529875517       -4.4592926265       -1.2450784908
 H          4.5133942954       -4.8491587500        0.3516767230
 H          7.3257515253       -0.5729004851       -1.7007278218
 H          8.8949029286        0.7822944432        2.0591952126
 H          6.6078651491        1.0835445497        2.9469235929
 H         -2.6211960681       -0.2037713063       -0.8018704768
