  69
 
 C         -6.5036586628       -4.4296250700        0.9513329297
 C         -5.5486720420       -3.3017327421        0.7191537435
 C         -5.6475104624       -2.5181992552       -0.4259187978
 C         -4.7747745587       -1.4729221010       -0.6645319631
 C         -4.9090004934       -0.6796601327       -1.9279244189
 C         -3.7649563640       -1.1584574143        0.2695227904
 B         -2.8121274391        0.0683181560        0.0426519498
 C         -1.2917643975       -0.1652302240        0.0179825693
 C         -0.7467922875       -1.4484987596       -0.2130382394
 C          0.6023391888       -1.6625218013       -0.2403519519
 C          1.5061612040       -0.6011271442       -0.0199902408
 C          2.9021450628       -0.8233299933       -0.0388380561
 N          3.3840579605       -2.0899637254       -0.2737371429
 C          4.6736800693       -2.2217959851       -0.2796749046
 Cl         5.2886780955       -3.7945292906       -0.5752345987
 N          5.5718574622       -1.2793967814       -0.0820282442
 C          5.0537925282       -0.0391450950        0.1500115286
 C          5.9826466760        1.0516884215        0.3787243018
 C          7.3589803971        0.8157935657        0.3622010371
 C          8.2410589640        1.8547619857        0.5805447652
 C          7.7657666448        3.1360022987        0.8167871002
 C          6.3993003450        3.3763993262        0.8342221717
 C          5.5097758122        2.3445623408        0.6173300043
 N          3.7657584846        0.1808510151        0.1690245875
 C          0.9747256469        0.6847306399        0.2186930809
 C         -0.3759516621        0.8903756154        0.2267878558
 C         -3.3548284077        1.5284871505       -0.1601089962
 C         -3.0453351370        2.2665933558       -1.3181910594
 C         -2.1428520456        1.7218268795       -2.3862698786
 C         -3.5915516275        3.5260256898       -1.5093640188
 C         -4.4259632179        4.1093362763       -0.5661687495
 C         -5.0081296027        5.4704288743       -0.7833925637
 C         -4.7170609967        3.3890326291        0.5866894002
 C         -4.1904914396        2.1287424635        0.8043872091
 C         -4.5137112907        1.4094018866        2.0777414647
 C         -3.6553329755       -1.9637424389        1.4195810421
 C         -2.5962672148       -1.7231710783        2.4549582986
 C         -4.5477959120       -3.0027930011        1.6323947523
 H         -7.4844662427       -4.0369434980        1.2222050204
 H         -6.6239849810       -5.0238512231        0.0471562903
 H         -6.1590905244       -5.0750376584        1.7553911893
 H         -6.4216295272       -2.7390138942       -1.1480122168
 H         -5.7649612918       -1.0167194299       -2.5076841873
 H         -5.0312095781        0.3784583741       -1.7019344228
 H         -4.0140330928       -0.7843093898       -2.5394950028
 H         -1.4210569878       -2.2744474760       -0.3917085490
 H          1.0080006603       -2.6448817521       -0.4302377558
 H          7.7101895797       -0.1871916367        0.1767887126
 H          9.3050724691        1.6689631383        0.5673375654
 H          8.4587063622        3.9468377490        0.9872572945
 H          6.0307528406        4.3751208442        1.0183659111
 H          4.4444472562        2.5156312315        0.6278974249
 H          1.6621508684        1.4987933893        0.3938858187
 H         -0.7616599382        1.8820187525        0.4189907064
 H         -2.4911805934        2.0291640354       -3.3707879851
 H         -2.0863608213        0.6382986633       -2.3472434754
 H         -1.1326938773        2.1094448607       -2.2527597876
 H         -3.3546140231        4.0690837014       -2.4141073709
 H         -5.0540301918        6.0259459469        0.1510697481
 H         -6.0251193513        5.3806449171       -1.1679560629
 H         -4.4222590665        6.0353366557       -1.5044581705
 H         -5.3642295072        3.8293789462        1.3328196970
 H         -4.9528141111        0.4361847363        1.8639260615
 H         -5.2111092818        1.9850269960        2.6816409933
 H         -3.6088237786        1.2413293578        2.6599609823
 H         -1.7521595756       -2.3918120437        2.2849828611
 H         -2.2215332496       -0.7049797139        2.4144484846
 H         -2.9864107197       -1.9243347925        3.4511337167
 H         -4.4548144935       -3.5985926291        2.5301081125
