  63
 
 N          1.8806526281        3.5974585825       -0.9551608457
 C          1.4240611677        2.6177709779       -0.5637137971
 C          0.8414864332        1.4097609621       -0.1319146982
 C         -0.5319784990        1.2722876535       -0.1994078182
 C         -1.1560878227        0.0547323797        0.1229633639
 C         -2.5668507049       -0.0728450761        0.0587228773
 N         -3.3270150678        0.9971908130       -0.2812686730
 C         -4.6273226214        0.8505819176       -0.3180741417
 C         -5.4575961699        2.0025094999       -0.6600298256
 C         -4.8715065006        3.2341739521       -0.9553968228
 C         -5.6622601596        4.3203045320       -1.2740438331
 C         -7.0434604152        4.1930440565       -1.3025708597
 C         -7.6325624959        2.9724507221       -1.0094544031
 C         -6.8472596427        1.8818614535       -0.6903208336
 N         -5.2463101612       -0.3155951737       -0.0545167105
 C         -4.4530962395       -1.3525201292        0.2709763924
 C         -5.0889898295       -2.6355048663        0.5601381670
 C         -6.4750604879       -2.7685038102        0.4743764067
 C         -7.0745751128       -3.9824526141        0.7486110125
 C         -6.3014337301       -5.0753941888        1.1098273738
 C         -4.9224242943       -4.9504070738        1.1960288070
 C         -4.3169629544       -3.7399349549        0.9230380421
 N         -3.1488407126       -1.2638716324        0.3435443938
 C         -0.3327664941       -1.0398234433        0.4984607953
 C          1.0266964694       -0.9032182403        0.5753910080
 C          1.6460200694        0.3184248442        0.2857235430
 N          3.0374381188        0.4462458716        0.3782787428
 C          3.7418384243        1.4505067075        1.0489374524
 C          3.2581346587        2.4829676350        1.8277917754
 C          4.1817781000        3.3436094570        2.4058036754
 C          5.5498086143        3.1687346817        2.2224104331
 C          6.0430877603        2.1155383023        1.4760391933
 C          5.1377783543        1.2348338467        0.8876975570
 C          5.2692455234        0.0476862966        0.1138680252
 C          6.2401715240       -0.8165084218       -0.4575344857
 C          7.6356168804       -0.7542274147       -0.4292058137
 C          8.3733102156       -1.7322940374       -1.0653548516
 C          7.7463636454       -2.7783046262       -1.7337126943
 C          6.3606849765       -2.8628457876       -1.7799253893
 C          5.6223018538       -1.8869539549       -1.1460217648
 S          3.8489904611       -1.8234021154       -1.0938983278
 C          3.9566995185       -0.3865371693       -0.1546805429
 H         -1.1429548795        2.1022261079       -0.5208000485
 H         -3.7957021471        3.3188574831       -0.9289923980
 H         -5.2018837349        5.2705577891       -1.5016232870
 H         -7.6589966247        5.0444731046       -1.5520699106
 H         -8.7077636099        2.8719905034       -1.0305188007
 H         -7.2896854606        0.9251397257       -0.4589568137
 H         -7.0623043258       -1.9086266041        0.1908856383
 H         -8.1482394281       -4.0784088940        0.6803298434
 H         -6.7722708576       -6.0234000135        1.3238141990
 H         -4.3192943529       -5.8012052654        1.4770511399
 H         -3.2455013203       -3.6267451062        0.9855281126
 H         -0.8084417453       -1.9784967975        0.7312596668
 H          1.6409324235       -1.7375244112        0.8806692112
 H          2.2002558578        2.6199201166        1.9902836534
 H          3.8259635177        4.1627720157        3.0113264142
 H          6.2358137534        3.8632147334        2.6826311943
 H          7.1047177024        1.9726437568        1.3540375239
 H          8.1207953294        0.0566295351        0.0897485402
 H          9.4514296448       -1.6862131859       -1.0439481670
 H          8.3390338195       -3.5349224179       -2.2242390574
 H          5.8704441892       -3.6716124986       -2.2988623468
