112

C     -6.098628    5.785492   -0.048003
C     -4.844322    4.955983    0.299458
C     -4.427303    5.249543    1.756921
C     -3.698261    5.454638   -0.609532
C     -5.158730    3.457392    0.140954
C     -4.479139    2.633598   -0.772151
C     -4.779654    1.271616   -0.892565
C     -5.778027    0.704581   -0.099650
N     -6.061622   -0.686858   -0.176025
C     -5.113635   -1.710069   -0.092865
C     -3.658046   -1.550083   -0.043551
C     -2.867481   -2.140029   -1.035412
C     -1.477138   -1.988503   -1.017916
C     -0.843249   -1.259498    0.000429
C      0.616815   -1.090418    0.009928
C      1.389079   -1.538405    1.094406
C      2.778180   -1.381088    1.101117
C      3.424246   -0.765678    0.020857
N      4.850056   -0.602739    0.022482
C      5.427355    0.557035    0.645820
C      4.608533    1.529582    1.270622
C      5.138063    2.644477    1.921640
C      6.508751    2.817703    1.972412
C      7.337627    1.883651    1.357874
C      6.819147    0.753151    0.671542
C      7.800513   -0.237822   -0.024701
C      8.771474   -0.859573    1.061528
C      8.285582   -1.170512    2.351405
C      9.102736   -1.761947    3.319077
C     10.420947   -2.083290    3.017093
C     10.916830   -1.828759    1.743334
C     10.099068   -1.237899    0.774597
C      8.510267    0.608437   -1.160358
C      7.904650    0.747757   -2.429130
C      8.481051    1.530250   -3.434352
C      9.665189    2.216830   -3.191953
C     10.264982    2.133219   -1.940450
C      9.688512    1.349989   -0.935099
C      7.071570   -1.454971   -0.669461
C      7.829912   -2.438282   -1.359603
C      7.235761   -3.555178   -1.940363
C      5.865473   -3.716738   -1.851238
C      5.099120   -2.751465   -1.196424
C      5.674489   -1.599718   -0.605274
C      2.662955   -0.311844   -1.064082
C      1.275136   -0.475644   -1.068247
C     -1.642015   -0.698955    1.009515
C     -3.033330   -0.846415    0.992340
N     -5.703296   -2.879795    0.039089
C     -7.053907   -2.637415    0.019347
C     -8.114143   -3.557502    0.186415
C     -7.784152   -4.897570    0.480707
C     -8.783871   -5.841893    0.682739
C    -10.114040   -5.456782    0.591160
C    -10.443890   -4.129104    0.289751
C     -9.457833   -3.131116    0.071170
C     -9.728652   -1.767485   -0.280394
C    -11.040673   -1.271136   -0.482972
C    -11.294246    0.040522   -0.893417
C    -10.239706    0.903653   -1.135325
C     -8.933165    0.465857   -0.935483
C     -8.658101   -0.842826   -0.470063
C     -7.322961   -1.292333   -0.220557
C     -6.468351    1.499481    0.818156
C     -6.161411    2.858985    0.929420
H     -6.937327    5.568214    0.622665
H     -6.435779    5.580631   -1.070701
H     -5.895577    6.860254    0.027509
H     -4.164676    6.305897    1.887291
H     -3.554936    4.650026    2.045255
H     -5.228392    5.030389    2.471670
H     -3.936551    5.321224   -1.671159
H     -2.760047    4.926567   -0.401780
H     -3.507908    6.523444   -0.454251
H     -3.695504    3.026973   -1.414151
H     -4.234452    0.683679   -1.627356
H     -3.332829   -2.722859   -1.828013
H     -0.886767   -2.457561   -1.802959
H      0.910848   -2.027554    1.940839
H      3.361022   -1.741004    1.945179
H      3.525693    1.433857    1.265376
H      4.475274    3.366380    2.390065
H      6.936585    3.675194    2.484008
H      8.411201    2.041136    1.424702
H      7.250988   -0.963181    2.619535
H      8.701340   -1.978497    4.305716
H     11.054956   -2.547120    3.767483
H     11.938845   -2.102499    1.494547
H     10.519287   -1.095306   -0.218483
H      6.960602    0.253580   -2.651458
H      7.993875    1.610039   -4.402515
H     10.109599    2.830088   -3.971130
H     11.177718    2.687499   -1.737957
H     10.175107    1.344232    0.037599
H      8.907473   -2.332456   -1.457574
H      7.844753   -4.292253   -2.456282
H      5.384709   -4.585024   -2.293138
H      4.025703   -2.920596   -1.160447
H      3.155302    0.169831   -1.904915
H      0.704786   -0.109051   -1.919339
H     -1.183713   -0.131341    1.817203
H     -3.621680   -0.404622    1.793668
H     -6.740756   -5.199457    0.559967
H     -8.523021   -6.870791    0.913625
H    -10.902999   -6.187533    0.749911
H    -11.501785   -3.891506    0.225591
H    -11.907479   -1.910360   -0.339926
H    -12.317954    0.373030   -1.044944
H    -10.427778    1.914509   -1.487062
H     -8.138219    1.160963   -1.184431
H     -7.231618    1.078172    1.469295
H     -6.719009    3.448677    1.654582
