137

C     13.316274   -4.046087    2.148688
C     12.716835   -4.266884    0.743045
C     13.845761   -4.196819   -0.308180
C     12.151371   -5.705196    0.706433
C     11.669037   -3.176825    0.455291
C     10.319170   -3.466923    0.233051
C      9.372311   -2.465396   -0.024913
C      9.791894   -1.123896   -0.081863
C     11.119938   -0.786911    0.173633
C     12.053393   -1.819445    0.428716
C     11.225665    0.633650    0.124647
C     12.305223    1.530567    0.303279
C     12.142910    2.924943    0.161911
C     13.345493    3.861939    0.372751
C     13.011623    5.359282    0.185909
C     14.461131    3.514596   -0.636074
C     13.887518    3.692823    1.808825
C     10.869633    3.392074   -0.180904
C      9.779701    2.527288   -0.359348
C      9.964029    1.145345   -0.171527
N      9.088218    0.064462   -0.289365
C      7.691577    0.158275   -0.564936
C      6.907725    1.110831    0.094252
C      5.534214    1.183924   -0.160360
C      4.920941    0.317178   -1.078256
C      3.474549    0.384068   -1.333167
C      2.984395    0.616718   -2.638981
C      1.612026    0.669367   -2.911783
C      0.722570    0.484577   -1.868042
C      1.194041    0.254425   -0.559279
C      2.555561    0.205486   -0.284385
C      0.017513    0.074922    0.403265
C      0.015395    1.167636    1.478122
C      0.033860   -1.320393    1.037720
C     -1.174844    0.235273   -0.543402
C     -2.532162    0.167912   -0.249263
C     -3.470418    0.340373   -1.282535
C     -4.915318    0.268533   -1.006110
C     -5.502671    1.062960   -0.008611
C     -6.875244    0.996160    0.256649
C     -7.687906    0.125042   -0.475028
N     -9.088053    0.048960   -0.206854
C     -9.832229   -1.131002   -0.131295
C     -9.457439   -2.485126   -0.205341
C    -10.443818   -3.474776   -0.080291
C    -11.789733   -3.163363    0.138095
C    -12.882695   -4.238276    0.275702
C    -12.363925   -5.684044    0.104145
C    -13.525226   -4.145501    1.676654
C    -13.969802   -4.017022   -0.798787
C    -12.127527   -1.798921    0.251393
C    -11.154531   -0.778558    0.130547
C    -11.214896    0.641448    0.235114
C    -12.275592    1.545635    0.489493
C    -12.070120    2.936692    0.504533
C    -13.207663    3.937700    0.775673
C    -14.575436    3.272100    1.051256
C    -13.388415    4.862197   -0.447587
C    -12.861733    4.793570    2.013372
C    -10.771490    3.397118    0.242474
C     -9.701704    2.527507   -0.010826
C     -9.931071    1.140033    0.019126
C     -7.119559   -0.673435   -1.472202
C     -5.747050   -0.599040   -1.732093
C     -2.998661    0.580790   -2.594721
C     -1.630622    0.648366   -2.888076
C     -0.724195    0.473631   -1.857939
C      5.724492   -0.624867   -1.740056
C      7.096973   -0.709107   -1.486243
H     14.040742   -4.830380    2.397484
H     12.534079   -4.058867    2.916845
H     13.840004   -3.087466    2.229661
H     13.448505   -4.320596   -1.322410
H     14.588708   -4.985860   -0.142577
H     14.382759   -3.242827   -0.279299
H     11.724350   -5.945738   -0.274224
H     12.936969   -6.444098    0.905775
H     11.373403   -5.853658    1.464327
H      9.950931   -4.489286    0.264012
H      8.330851   -2.743356   -0.154334
H     13.086059   -1.538000    0.616599
H     13.277898    1.113364    0.549390
H     12.656668    5.569668   -0.829558
H     13.896255    5.985347    0.353126
H     12.242767    5.692140    0.892722
H     15.318709    4.188018   -0.522905
H     14.836165    2.493742   -0.505818
H     14.101373    3.603846   -1.667671
H     13.109534    3.906497    2.551535
H     14.725309    4.374070    1.997866
H     14.252461    2.677273    1.998224
H     10.680059    4.452470   -0.328756
H      8.819227    2.937651   -0.655700
H      7.334620    1.773994    0.842872
H      4.939530    1.926805    0.368421
H      3.684964    0.766462   -3.459205
H      1.264965    0.849772   -3.923422
H      2.902756    0.014011    0.727201
H      0.904888    1.102803    2.115344
H      0.001972    2.170992    1.035157
H     -0.863235    1.085587    2.128388
H     -0.845682   -1.480927    1.671732
H      0.922178   -1.464164    1.663630
H      0.037956   -2.110384    0.276873
H     -2.860501   -0.029326    0.767455
H     -4.889573    1.749012    0.572782
H     -7.278099    1.601059    1.065108
H     -8.422155   -2.783837   -0.340613
H    -10.110143   -4.506980   -0.151868
H    -11.617669   -5.938583    0.865679
H    -13.179916   -6.410361    0.199859
H    -11.911346   -5.835912   -0.882795
H    -14.024871   -3.183827    1.840241
H    -14.280210   -4.928098    1.817921
H    -12.771147   -4.263309    2.464609
H    -13.541080   -4.054157   -1.807171
H    -14.747228   -4.787434   -0.738398
H    -14.471237   -3.049477   -0.690390
H    -13.155069   -1.502940    0.444932
H    -13.258072    1.119628    0.662381
H    -15.349228    4.025287    1.244034
H    -14.913502    2.675932    0.195558
H    -14.536217    2.618064    1.930463
H    -12.495452    5.465252   -0.646261
H    -14.219549    5.561109   -0.295832
H    -13.602263    4.281306   -1.352895
H    -13.673419    5.491264    2.251466
H    -11.957556    5.393652    1.863370
H    -12.695684    4.162901    2.894775
H    -10.563270    4.465685    0.220789
H     -8.725087    2.941103   -0.242550
H     -7.729339   -1.331241   -2.087052
H     -5.327179   -1.233095   -2.510945
H     -3.710773    0.728531   -3.405262
H     -1.300047    0.835733   -3.904043
H      5.279843   -1.311560   -2.458318
H      7.687127   -1.432851   -2.043476
