  114
 
 C         11.0674519177        0.3661886917        0.1753777442
 C          9.5794018721        0.1694938726        0.1446857038
 C          8.9309345698       -0.1223822787       -1.0587037145
 C          9.6780499288       -0.3234158314       -2.3174053835
 C          9.4192992463        0.4921549323       -3.4144621260
 C         10.0973405256        0.3031301732       -4.6049919358
 C         11.0334716785       -0.7108825095       -4.7181631327
 C         11.2869227351       -1.5361139439       -3.6353515276
 C         10.6160620019       -1.3429291700       -2.4416334579
 C          7.5451015707       -0.2104878728       -1.1066273740
 C          6.8004146947       -0.0310987527        0.0439854732
 N          5.3702621006       -0.1154051484       -0.0096956260
 C          4.8269151900       -1.3568706392       -0.3053736424
 O          5.5395074752       -2.3216455314       -0.4884811383
 C          3.3567649216       -1.4210061035       -0.3687338158
 C          2.7472822566       -2.6166769255       -0.6858018856
 C          1.3568276293       -2.6910691353       -0.7796258824
 C          0.5820527746       -1.5871570314       -0.5297117356
 C          1.1635388327       -0.3554101630       -0.1643352699
 C          0.3975335414        0.8134108004        0.1071348891
 C         -1.0684900087        0.7743104852        0.1406448585
 C         -1.7504548171       -0.1504179227        0.9323787994
 C         -3.1270341454       -0.1665849516        0.9758069398
 C         -3.8741807052        0.7333858508        0.2104614502
 N         -5.2642613156        0.6959824877        0.2297473287
 C         -6.0093810556        1.8716718057        0.0760488197
 C         -7.1914429875        1.8665752341       -0.6636239003
 C         -7.9291302039        3.0224071665       -0.8075947421
 C         -7.5086883267        4.2207035548       -0.2325220233
 C         -8.2916636657        5.4521301068       -0.3984488560
 C         -9.6834069947        5.4239424847       -0.3371984855
 C        -10.4190230112        6.5836792541       -0.4931272613
 C         -9.7782319790        7.7907025611       -0.7173823865
 C         -8.3954931034        7.8306444795       -0.7822230936
 C         -7.6578942964        6.6727461467       -0.6220556190
 C         -6.3250524759        4.2185985963        0.5039414670
 C         -5.5887324820        3.0639384438        0.6645008973
 C         -5.9319790613       -0.5262352008        0.3945610226
 C         -7.0893882724       -0.5922389806        1.1715140591
 C         -7.7604080581       -1.7879910242        1.3460028054
 C         -7.2615270589       -2.9331973530        0.7461228977
 C         -6.0979941540       -2.8705515271       -0.0356397375
 C         -5.4379236361       -1.6799910946       -0.2216636843
 C         -5.7442627836       -4.2351852487       -0.5816829575
 C         -5.7687250829       -4.2450949234       -2.1129833846
 C         -4.3762931226       -4.6912259979       -0.0643804839
 C         -6.8577359043       -5.0854631218       -0.0112382660
 C         -7.0777013886       -6.4368734256       -0.1641498211
 C         -8.1788279498       -7.0109804805        0.4578513428
 C         -9.0446162435       -6.2417411343        1.2194424875
 C         -8.8313006094       -4.8821443136        1.3783122603
 C         -7.7336094519       -4.3065376807        0.7598692917
 C         -3.1930995703        1.6670539734       -0.5751588047
 C         -1.8158338672        1.6926990388       -0.5956451769
 C          1.0470812265        2.0083633957        0.3513059777
 C          2.4357924974        2.0854478017        0.3880934143
 C          3.2047152378        0.9584251385        0.1756334628
 C          2.5795570845       -0.2715158085       -0.1142661168
 C          4.6692865769        1.0584142837        0.2367079833
 O          5.2554913441        2.0943516018        0.4744844113
 C          7.4282430107        0.2394958668        1.2447730446
 C          8.8133910864        0.3413942652        1.3011991366
 C          9.4242409879        0.6512789642        2.6094550986
 C         10.3690504620       -0.1912247935        3.1863771176
 C         10.9071687255        0.1042293828        4.4256714925
 C         10.5121180363        1.2461599512        5.1020607395
 C          9.5670530197        2.0868242178        4.5379900141
 C          9.0215086212        1.7890492758        3.3026142526
 H         11.3435361879        1.0636943501        0.9629971780
 H         11.5828747069       -0.5745817640        0.3654740264
 H         11.4191416624        0.7501878412       -0.7798363340
 H          8.6911652143        1.2854655871       -3.3227392426
 H          9.8938132315        0.9476584542       -5.4480208114
 H         11.5613663107       -0.8598869321       -5.6487180460
 H         12.0098280561       -2.3343871797       -3.7223588003
 H         10.8035592646       -1.9968643938       -1.6030280062
 H          7.0533743406       -0.4321844325       -2.0419910974
 H          3.3668023216       -3.4803112506       -0.8747811876
 H          0.8926084794       -3.6252480859       -1.0582030762
 H         -0.4911690803       -1.6491323064       -0.6280094188
 H         -1.1898940092       -0.8378820516        1.5492191110
 H         -3.6384138081       -0.8751267097        1.6103807863
 H         -7.5223361776        0.9492673851       -1.1283871319
 H         -8.8310862174        3.0042143018       -1.4013235551
 H        -10.1889519274        4.4886562866       -0.1448977157
 H        -11.4974040705        6.5469167027       -0.4373886186
 H        -10.3538016753        8.6960716645       -0.8410983063
 H         -7.8900784426        8.7686931279       -0.9610388355
 H         -6.5802908171        6.7082250128       -0.6917683932
 H         -5.9940520976        5.1284331822        0.9826114044
 H         -4.6839616410        3.0748543224        1.2547965190
 H         -7.4556131284        0.3078538375        1.6432746041
 H         -8.6529170184       -1.8248723820        1.9521494186
 H         -4.5501054607       -1.6199263005       -0.8343781733
 H         -5.0073363551       -3.5764664732       -2.5081624408
 H         -6.7411514827       -3.9181453510       -2.4751103389
 H         -5.5789939248       -5.2484484469       -2.4867474990
 H         -4.1591182412       -5.6993247755       -0.4092360423
 H         -3.5954249338       -4.0240238593       -0.4227872290
 H         -4.3655988485       -4.6870329978        1.0236333559
 H         -6.4098002747       -7.0464110787       -0.7555944884
 H         -8.3627572105       -8.0695913271        0.3466780702
 H         -9.8952031590       -6.7090214931        1.6941069793
 H         -9.5071481956       -4.2847138661        1.9720854187
 H         -3.7552443825        2.3652935278       -1.1772290305
 H         -1.3049217250        2.4101663141       -1.2209032471
 H          0.4612126337        2.8942895348        0.5479775356
 H          2.9339175145        3.0204085132        0.5963593469
 H          6.8438059104        0.3735844977        2.1426974674
 H         10.6667970126       -1.0907809340        2.6683631713
 H         11.6370084085       -0.5595651436        4.8664358423
 H         10.9368199466        1.4780509377        6.0678546426
 H          9.2530090815        2.9768221650        5.0639661668
 H          8.2860854303        2.4438817231        2.8580087872
