76

O      7.627694    3.581876    0.135395
C      7.800652    2.369939    0.035084
C      9.180545    1.842123   -0.111014
C      9.572344    0.634439    0.479665
C     10.883633    0.178951    0.327436
C     11.805340    0.931250   -0.401317
C     11.423191    2.145078   -0.972244
C     10.114078    2.604571   -0.822563
C      6.622036    1.467191    0.061337
C      5.526995    1.823921    0.856148
C      4.391752    1.010163    0.896748
C      4.343374   -0.162130    0.132080
N      3.184201   -0.995001    0.168829
C      3.195196   -2.389625    0.255572
C      4.252678   -3.313926    0.394621
C      3.953088   -4.676963    0.478230
C      2.637825   -5.119345    0.445967
C      1.589292   -4.202272    0.345699
C      1.865948   -2.819409    0.262477
C      1.033993   -1.664747    0.186933
C     -0.369044   -1.487479    0.158637
C     -0.937651   -0.207206    0.041857
C     -2.398885   -0.030274    0.011226
C     -3.040256    0.847368    0.897817
C     -4.429910    1.016611    0.869706
C     -5.226435    0.312640   -0.047019
N     -6.658787    0.486309   -0.076544
C     -7.230244    1.802339    0.087658
C     -8.387763    1.997599    0.861996
C     -8.940162    3.271251    1.021801
C     -8.345296    4.371484    0.409135
C     -7.198752    4.200354   -0.362792
C     -6.645702    2.926884   -0.521800
C     -7.520775   -0.655970   -0.270339
C     -8.658299   -0.573331   -1.092974
C     -9.491914   -1.678990   -1.281259
C     -9.203102   -2.886024   -0.649259
C     -8.081854   -2.989469    0.170412
C     -7.247568   -1.884163    0.357859
C     -4.584656   -0.565651   -0.934230
C     -3.194845   -0.733391   -0.905201
C     -0.077071    0.890196   -0.059646
C      1.315986    0.744883   -0.032121
C      1.862674   -0.543930    0.124033
C      5.432277   -0.510224   -0.678394
C      6.566074    0.307248   -0.719747
H      8.877176    0.048744    1.075292
H     11.190994   -0.757881    0.786034
H     12.827344    0.577162   -0.514570
H     12.145668    2.737716   -1.528038
H      9.822396    3.557614   -1.259610
H      5.559157    2.734733    1.451792
H      3.574777    1.289958    1.558140
H      5.287303   -2.991945    0.456560
H      4.761230   -5.397891    0.579462
H      2.419514   -6.182042    0.514462
H      0.561578   -4.554849    0.342283
H     -1.011423   -2.361839    0.231638
H     -2.461257    1.400465    1.634817
H     -4.889497    1.691381    1.588311
H     -8.858143    1.154982    1.363434
H     -9.832695    3.401490    1.628063
H     -8.775195    5.361998    0.533101
H     -6.734305    5.055969   -0.845876
H     -5.760734    2.813302   -1.143532
H     -8.892511    0.354516   -1.609675
H    -10.363848   -1.595524   -1.924616
H     -9.851858   -3.745717   -0.795301
H     -7.855869   -3.928458    0.668746
H     -6.387638   -1.981608    1.016369
H     -5.162584   -1.114202   -1.674502
H     -2.735366   -1.411739   -1.621515
H     -0.488739    1.890962   -0.184761
H      1.943745    1.622592   -0.152404
H      5.395710   -1.385002   -1.324484
H      7.383171    0.039963   -1.385518
