  74
 
 C          7.0730467195       -1.6725228041        0.4619446758
 C          5.7284805345       -0.9452138483        0.4880050850
 C          5.1837186286       -0.9966619311        1.9314113972
 C          5.8463363692        0.5064890900        0.0677124036
 C          7.0411310180        1.2037114176       -0.0332955609
 C          7.0594784495        2.5394214338       -0.3980938136
 C          5.8765208614        3.1965308411       -0.6900454308
 C          4.6773084021        2.5152060003       -0.6135788452
 C          4.6560687326        1.1812674182       -0.2173245688
 N          3.4453937788        0.4660654049       -0.1946383642
 C          2.2908458237        1.0377752060        0.2879213655
 C          2.3937045534        2.0764835187        1.2577635043
 C          1.2509161829        2.6203641964        1.7645906300
 C          0.0001357116        2.1502768446        1.3211527814
 C         -1.2476817614        2.6244554507        1.7689145847
 C         -2.3941569847        2.0888725027        1.2617874698
 C         -2.2983307923        1.0568092295        0.2839374399
 N         -3.4532871838        0.4970187846       -0.2081416716
 C         -3.5356651951       -0.7964385118       -0.7692621910
 C         -2.5488374926       -1.2991138842       -1.6068889419
 C         -2.6910910332       -2.5576004004       -2.1626686319
 C         -3.8264419010       -3.3037907039       -1.9061923503
 C         -4.8151514347       -2.7965901581       -1.0795667075
 C         -4.6860956379       -1.5471646569       -0.4930310083
 C         -5.7085016481       -0.9589713677        0.4656547989
 C         -5.1385016627       -1.0468059031        1.8974230469
 C         -7.0451797437       -1.7006692352        0.4406295789
 C         -5.8495784142        0.5029287177        0.0893418090
 C         -7.0538432524        1.1880579498        0.0248483445
 C         -7.0932574581        2.5324647014       -0.3047119463
 C         -5.9229639548        3.2107311367       -0.5992356982
 C         -4.7147090525        2.5422675258       -0.5586017043
 C         -4.6719111568        1.1995552023       -0.1956877162
 N         -1.1407734046        0.5736022415       -0.1145271387
 C         -0.0036036112        1.0888185459        0.3717397449
 N          1.1305296163        0.5633603901       -0.1117061728
 C          3.5322286630       -0.8442346818       -0.7134403004
 C          2.5341365627       -1.3882219600       -1.5112534452
 C          2.6802772004       -2.6634754717       -2.0262225430
 C          3.8301263135       -3.3868975482       -1.7695289455
 C          4.8286610480       -2.8401700062       -0.9808164457
 C          4.6962150432       -1.5731548466       -0.4341300765
 H          6.9494382518       -2.7005115027        0.7919385157
 H          7.7681059180       -1.1953304342        1.1480763023
 H          7.4996954247       -1.6680199303       -0.5384743210
 H          4.2169342684       -0.5052357054        2.0082842408
 H          5.0643485847       -2.0318453463        2.2440378671
 H          5.8773975136       -0.5027425593        2.6089892552
 H          7.9761775416        0.7114792095        0.1775931903
 H          8.0004100831        3.0650653185       -0.4612354972
 H          5.8860998487        4.2334333341       -0.9913463276
 H          3.7495789831        3.0081190014       -0.8671303360
 H          3.3637667103        2.3980173007        1.6031138422
 H          1.2906848919        3.4005031329        2.5136899489
 H         -1.2821991397        3.4013403243        2.5216392766
 H         -3.3615219073        2.4126663447        1.6123001306
 H         -1.6726534199       -0.7060507612       -1.8003491258
 H         -1.9168068317       -2.9452327807       -2.8078533156
 H         -3.9474408048       -4.2827665548       -2.3461817546
 H         -5.6907666606       -3.3963822596       -0.8925962392
 H         -5.0032360748       -2.0893727749        2.1773083810
 H         -4.1756262410       -0.5475887147        1.9728559367
 H         -5.8255958717       -0.5806171979        2.6008616272
 H         -7.4895107137       -1.6706625182       -0.5516095949
 H         -7.7332246430       -1.2527524472        1.1530620956
 H         -6.9042213597       -2.7367312559        0.7367182273
 H         -7.9796733928        0.6793678293        0.2373580957
 H         -8.0410463057        3.0483393986       -0.3393389391
 H         -5.9496288850        4.2544835266       -0.8747033004
 H         -3.7970290144        3.0521371061       -0.8151435100
 H          1.6460628286       -0.8132016232       -1.7046428891
 H          1.8967071858       -3.0827176679       -2.6396283003
 H          3.9541354082       -4.3787983353       -2.1786384521
 H          5.7149403870       -3.4232262878       -0.7911454718
