  128
 
 C         -8.6303164899       -2.3773123369        4.6740671568
 C         -7.7761034816       -3.2902225980        3.7818844278
 C         -8.6835373791       -4.2580059120        3.0074542450
 C         -6.8570631552       -4.1168880510        4.6862785675
 C         -6.9999718509       -2.4350703268        2.7925510910
 C         -5.6147100949       -2.4339255810        2.7070105425
 C         -4.9627666614       -1.6324790076        1.7916752416
 C         -5.6652423729       -0.7880184465        0.9346290938
 C         -7.0600101204       -0.8027193900        0.9689481152
 C         -7.6850879970       -1.6182915185        1.9011496531
 C         -7.9094392908        0.0056574488        0.0073589661
 C         -8.7866052248        0.9756812642        0.8209269940
 C         -8.7886532507       -0.9635704097       -0.8049461618
 C         -7.0606780462        0.8132746905       -0.9554525646
 C         -7.6863406048        1.6294604767       -1.8867233123
 C         -7.0017402122        2.4455881237       -2.7791173627
 C         -7.7784976140        3.3014057566       -3.7673828271
 C         -8.6348898053        2.3892472931       -4.6582458502
 C         -8.6838726465        4.2701142690       -2.9917013365
 C         -6.8599830399        4.1271004941       -4.6731955314
 C         -5.6163580062        2.4431930362       -2.6955424276
 C         -4.9638431599        1.6411136183       -1.7811689835
 C         -5.6658791947        0.7972326021       -0.9231889018
 N         -4.9791700148        0.0042317553        0.0051610202
 C         -3.5865423877        0.0032213436        0.0037683944
 C         -2.8478370702        0.5013489736        1.0867171921
 F         -3.5017125362        1.0134960799        2.1390874291
 C         -1.4636136643        0.5028017669        1.0827628522
 F         -0.8118330011        1.0527585839        2.1175192177
 C         -0.7347831384        0.0010169520        0.0008988155
 C          0.7347810179       -0.0002000645       -0.0005274655
 C          1.4644712006        0.5001517190       -1.0824782633
 F          0.8136268851        1.0509103467       -2.1173966568
 C          2.8486894947        0.4964655300       -1.0863622285
 F          3.5034480591        1.0073076528       -2.1388165892
 C          3.5865393622       -0.0025789401       -0.0032516708
 N          4.9791677171       -0.0037081473       -0.0045818924
 C          5.6640240479       -0.7970744852       -0.9339897399
 C          4.9602687258       -1.6409462695       -1.7905684756
 C          5.6109775298       -2.4434371842       -2.7058673599
 C          6.9962118570       -2.4462641415       -2.7918297538
 C          7.7710179190       -3.3026188310       -3.7811621313
 C          6.8507105393       -4.1282978869       -4.6851689091
 C          8.6773878440       -4.2713882712       -3.0067194977
 C          8.6262022928       -2.3910131260       -4.6737473219
 C          7.6825811939       -1.6300736061       -1.9008537703
 C          7.0587612793       -0.8134802654       -0.9687043199
 C          7.9094354269       -0.0058265249       -0.0076103750
 C          8.7878229741       -0.9758438577        0.8046457630
 C          8.7874299609        0.9629883009       -0.8217249692
 C          7.0619204009        0.8030034253        0.9552823788
 C          7.6888432299        1.6186608008        1.8861690610
 C          7.0054964951        2.4357823506        2.7786142074
 C          7.7835865180        3.2909514186        3.7663924068
 C          8.6896294185        4.2585657896        2.9901247892
 C          6.8663352327        4.1177679446        4.6724623716
 C          8.6394201165        2.3780645818        4.6570452996
 C          5.6200849631        2.4349702345        2.6955167556
 C          4.9663341731        1.6334789640        1.7815095151
 C          5.6670916937        0.7886231922        0.9234457047
 C          2.8499286655       -0.5004099442        1.0812605132
 F          3.5058364543       -1.0123552067        2.1324627520
 C          1.4657015684       -0.5017717341        1.0800266035
 F          0.8159184915       -1.0514823125        2.1161694460
 C         -1.4665642414       -0.4996054799       -1.0795148775
 F         -0.8177179229       -1.0505697875       -2.1155784873
 C         -2.8507860789       -0.4960068831       -1.0806827662
 F         -3.5075755119       -1.0071079571       -2.1317446357
 H         -9.1725650631       -2.9718216483        5.4063616906
 H         -9.3538610880       -1.8150939033        4.0906219151
 H         -7.9961614940       -1.6697743799        5.2046471754
 H         -9.2169258409       -4.9052441040        3.7004619046
 H         -9.4166102095       -3.7233272757        2.4101171476
 H         -8.0889760780       -4.8803494599        2.3414492368
 H         -6.2560569123       -4.8119255062        4.1041725217
 H         -7.4595308796       -4.6967763939        5.3826908254
 H         -6.1981063987       -3.4745063369        5.2661530661
 H         -5.0139985464       -3.0612675496        3.3440377061
 H         -3.8851050140       -1.6836984986        1.7431132079
 H         -8.7624236168       -1.6194995263        1.9285838944
 H         -9.4181154458        0.4331436155        1.5182423544
 H         -9.4272139654        1.5620065252        0.1691403165
 H         -8.1558624401        1.6577419671        1.3882469122
 H         -8.1593572891       -1.6461097350       -1.3732991139
 H         -9.4207768723       -0.4204411788       -1.5012454873
 H         -9.4287517272       -1.5494198853       -0.1522312063
 H         -8.7637127649        1.6316812539       -1.9126016842
 H         -9.1776823610        2.9842289266       -5.3897539012
 H         -9.3580836470        1.8277294162       -4.0736944705
 H         -8.0021896910        1.6810965181       -5.1897450124
 H         -8.0877494501        4.8918962571       -2.3265701954
 H         -9.4166199939        3.7361801752       -2.3932975178
 H         -9.2176093915        4.9178483375       -3.6839757177
 H         -6.2024274985        3.4840260397       -5.2538933536
 H         -7.4629003483        4.7074265548       -5.3688543817
 H         -6.2575236177        4.8216804868       -4.0920471078
 H         -5.0159902514        3.0700190981       -3.3334024286
 H         -3.8860640096        1.6913287454       -1.7341110060
 H          3.8825578088       -1.6908516254       -1.7416595229
 H          5.0093293116       -3.0702441737       -3.3425357617
 H          6.1924089774       -3.4851983290       -5.2649938554
 H          7.4522740713       -4.7090682328       -5.3816273602
 H          6.2489850578       -4.8224763462       -4.1027827962
 H          9.4112514433       -3.7375115767       -2.4096337998
 H          9.2098209341       -4.9194385581       -3.6997022652
 H          8.0821716972       -4.8928436695       -2.3404726120
 H          9.1675289090       -2.9863915246       -5.4060194183
 H          7.9928386041       -1.6827901721       -5.2043579789
 H          9.3505974170       -1.8295845090       -4.0905978831
 H          8.7599063728       -1.6325892263       -1.9286071731
 H          8.1579398133       -1.6575370819        1.3733623573
 H          9.4270535080       -1.5625682617        0.1518667618
 H          9.4207815791       -0.4332602366        1.5006117150
 H          8.1572795317        1.6456986070       -1.3889222888
 H          9.4180007732        0.4195565092       -1.5191949348
 H          9.4290096632        1.5486665820       -0.1703114706
 H          8.7662258374        1.6196431661        1.9116784389
 H          9.2243799239        4.9058504402        3.6820372915
 H          8.0938597378        4.8808705585        2.3251646577
 H          9.4215224006        3.7237452310        2.3914663714
 H          6.2083321850        3.4754798772        5.2535232836
 H          7.4701621418        4.6975505532        5.3677858132
 H          6.2643773053        4.8129085098        4.0914648274
 H          8.0062216449        1.6706267738        5.1888991191
 H          9.3618233697        1.8157390284        4.0722933045
 H          9.1830987181        2.9726083586        5.3882507930
 H          5.0206542822        3.0626051489        3.3334639428
 H          3.8886024049        1.6849533490        1.7348059856
