  92
 
 C         -8.3682709045       -7.2759345405       -0.5177510406
 C         -6.9861059908       -7.2661480421       -0.4298031116
 C         -6.3025344998       -6.0678358449       -0.3472628145
 C         -6.9911269213       -4.8558946790       -0.3457137647
 C         -6.2679351121       -3.5822349254       -0.2554138901
 C         -5.0664444059       -3.3885439037       -0.9380985262
 C         -4.3899122256       -2.1908362815       -0.8637353963
 C         -4.8927001552       -1.1414185978       -0.0907742967
 N         -4.2079196301        0.0698757440       -0.0105226172
 C         -4.9069174967        1.2723103380        0.0864358218
 C         -4.4037451641        2.3243313169        0.8555607142
 C         -5.0919796217        3.5142268676        0.9449879248
 C         -6.3060145548        3.6970113539        0.2818077116
 C         -7.0400775965        4.9632703881        0.3874398776
 C         -8.4295064829        4.9725795258        0.4989772170
 C         -9.1199907588        6.1652868039        0.6019936346
 C         -8.4364324535        7.3697693741        0.5900159228
 C         -7.0560508878        7.3732637549        0.4771130061
 C         -6.3629225963        6.1816152440        0.3794786739
 C         -6.8031138402        2.6420230434       -0.4842693650
 C         -6.1172156553        1.4517707916       -0.5877399259
 C         -2.8090704257        0.0816091732       -0.0238348172
 C         -2.1122793008        1.0796630232       -0.7115122837
 C         -0.7383982071        1.0933128109       -0.7177492740
 C          0.0098605715        0.1166715940       -0.0405153201
 C          1.4592392704        0.1394619263       -0.0436577708
 C          2.1719681038        1.3450794966       -0.1668935792
 C          3.5411286001        1.3779364318       -0.1658722094
 C          4.3000238676        0.1952468185       -0.0503527613
 C          5.7277834287        0.1693399989       -0.0508367484
 C          6.5490723301        1.2923381175       -0.2672674994
 C          7.9206837802        1.1249510929       -0.2464757551
 C          8.8774233896        2.1966766698       -0.4535446560
 C          8.5139073223        3.4546515054       -0.9480132250
 C          9.4623555519        4.4403653635       -1.1268262283
 C         10.7940340071        4.2027617635       -0.8213459070
 C         11.1698986682        2.9590558861       -0.3362172173
 C         10.2284001091        1.9690993051       -0.1560013837
 N          8.4342608531       -0.1146514145       -0.0026662710
 C          7.6412276800       -1.1514399096        0.1980151502
 C          8.2365854312       -2.4619383159        0.4574770121
 C          9.6173197813       -2.6305626521        0.3869399508
 C         10.1791582558       -3.8679199502        0.6351477131
 C          9.3703984444       -4.9467126232        0.9561997351
 C          7.9954276631       -4.7851928492        1.0275358420
 C          7.4290400535       -3.5501124007        0.7795222656
 N          6.3391795114       -1.0289655388        0.1702980282
 C          3.5825391524       -1.0156136828        0.0727987330
 C          2.2153193909       -1.0402742432        0.0796374133
 C         -0.7057144278       -0.8809522002        0.6413034495
 C         -2.0797097268       -0.9013459762        0.6516321233
 C         -6.0897151820       -1.3322410463        0.6039179042
 C         -6.7639185328       -2.5302223478        0.5155446605
 C         -8.3822301528       -4.8786141739       -0.4324256205
 C         -9.0632376360       -6.0779416059       -0.5202139185
 H         -8.9013567416       -8.2127146535       -0.5841467259
 H         -6.4389059686       -8.1976370128       -0.4233625001
 H         -5.2257519448       -6.0688200238       -0.2602350088
 H         -4.6751090477       -4.1787992247       -1.5613212651
 H         -3.4723914779       -2.0495045405       -1.4156773883
 H         -3.4760130415        2.1912137363        1.3922559472
 H         -4.6995446295        4.3066430917        1.5647575145
 H         -8.9678145729        4.0363024956        0.5278862048
 H        -10.1963782471        6.1560510103        0.6943979914
 H         -8.9769728855        8.3013352336        0.6683680918
 H         -6.5177980244        8.3098681636        0.4630356736
 H         -5.2879189939        6.1928102494        0.2731995552
 H         -7.7253854105        2.7701444425       -1.0312979502
 H         -6.5046934087        0.6538650317       -1.2042547321
 H         -2.6663991235        1.8309110275       -1.2560545095
 H         -0.2274519313        1.8541832683       -1.2874859301
 H          1.6283445042        2.2769721465       -0.2263066201
 H          4.0365652168        2.3340105281       -0.2401201356
 H          6.1130955249        2.2612897392       -0.4382691661
 H          7.4877274362        3.6618575487       -1.2107154273
 H          9.1631855239        5.4047219945       -1.5124867838
 H         11.5313556594        4.9787338344       -0.9639651185
 H         12.2058552714        2.7640418739       -0.0979106326
 H         10.5148012820        1.0010774768        0.2262094340
 H         10.2329436970       -1.7813400261        0.1324002662
 H         11.2504527241       -3.9950826456        0.5787812225
 H          9.8114444505       -5.9134456802        1.1508819672
 H          7.3661739336       -5.6267441393        1.2783662371
 H          6.3605932426       -3.4076302768        0.8341092570
 H          4.1468662699       -1.9327371204        0.1501941622
 H          1.7074556643       -1.9916728473        0.1450330675
 H         -0.1690002888       -1.6298961478        1.2031022903
 H         -2.6084168541       -1.6665436570        1.2019815026
 H         -6.4759881357       -0.5366806050        1.2241883036
 H         -7.6756060936       -2.6665317686        1.0780995528
 H         -8.9298635744       -3.9475623050       -0.4538964381
 H        -10.1411642898       -6.0789680647       -0.5931651542
