  68
 
 C          5.1986663222        5.0395690562       -0.1297345812
 O          3.8336373254        5.0454918537       -0.4678607723
 C          3.0748174425        3.9661496204       -0.1474949353
 C          1.7159942061        4.0751507753       -0.5247971856
 C          0.8147778191        3.0638224715       -0.2565992856
 C          1.2737515070        1.9257880400        0.3898666921
 C          2.6531242237        1.7894097181        0.7465317233
 C          3.5496029083        2.8270416254        0.4834024038
 C          2.8067711586        0.4987602364        1.3194413801
 C          3.8900713386       -0.2126594522        1.8382064125
 C          3.6632534053       -1.4624185833        2.3827035303
 C          2.3818146984       -2.0003353179        2.4564872029
 C          1.2872224892       -1.3123924038        1.9372621671
 C          1.5202491825       -0.1034215832        1.3176480954
 N          0.6095290930        0.7639381816        0.7118635510
 C         -0.6558093017        0.3997767198        0.2856922017
 C         -1.7545840957        1.2284940450        0.4991274471
 C         -3.0304584130        0.8279749206        0.1587031143
 C         -3.2529538515       -0.4480301033       -0.4434824991
 C         -2.1625889539       -1.2563026184       -0.6864848095
 C         -0.8645750475       -0.8715276954       -0.3697190312
 N          0.2202713996       -1.6604522042       -0.7267199743
 C          1.4142522493       -1.1835731933       -1.2514182356
 C          1.6765797098        0.0307598311       -1.8632641963
 C          2.9705120079        0.2715033144       -2.2946991222
 C          3.9680695267       -0.6910237848       -2.1548415482
 C          3.6910478954       -1.9349542401       -1.6222562502
 C          2.3994484402       -2.1988066081       -1.1817338200
 C          1.7598831245       -3.3485996023       -0.6209035299
 C          2.2002105088       -4.6292821411       -0.3043125127
 C          1.3131147220       -5.5108526951        0.2791486503
 C          0.0011800708       -5.1311866517        0.5635185341
 C         -0.4631462263       -3.8653084087        0.2503275425
 C          0.4138484594       -2.9811885627       -0.3576976131
 C         -4.6355064669       -0.8642579994       -0.8414520709
 C         -5.6875593224        0.1086600294       -0.3930163551
 C         -7.0335471710       -0.1653152184       -0.5834060289
 C         -8.0120230815        0.7289141671       -0.1889378539
 C         -7.6471253313        1.9294247733        0.4085753979
 C         -6.3168876158        2.2229967534        0.6100184469
 C         -5.3312862802        1.3169774804        0.2128184695
 O         -4.0428921149        1.6858204326        0.4481160103
 H          5.5930626356        5.9952232662       -0.4717827241
 H          5.3432453021        4.9534850303        0.9518697410
 H          5.7321585030        4.2263534531       -0.6322035765
 H          1.4072394218        4.9743576763       -1.0308266525
 H         -0.2150896056        3.1616979549       -0.5620451216
 H          4.5846264905        2.7127705185        0.7599500856
 H          4.8830151304        0.2092842652        1.8120094891
 H          4.4933027962       -2.0293432065        2.7781366900
 H          2.2273303302       -2.9619133416        2.9203483514
 H          0.2911631574       -1.7204902508        2.0223716017
 H         -1.6259609572        2.1761456210        0.9977304361
 H         -2.3139425359       -2.1997382615       -1.1911868930
 H          0.9009933901        0.7683465582       -2.0056111527
 H          3.2040010644        1.2214409578       -2.7511117362
 H          4.9691834591       -0.4638690067       -2.4903992315
 H          4.4578187020       -2.6910170520       -1.5488096478
 H          3.2205063770       -4.9185351617       -0.5047821654
 H          1.6374515668       -6.5095772641        0.5321553063
 H         -0.6637071189       -5.8360358104        1.0397238906
 H         -1.4754837832       -3.5776786631        0.4908087476
 H         -4.8562437261       -1.8575614806       -0.4327895632
 H         -4.6862407837       -0.9652795566       -1.9340426650
 H         -7.3125410327       -1.0991509719       -1.0508324613
 H         -9.0535434746        0.4944600737       -0.3453417736
 H         -8.4050045500        2.6331359380        0.7173352405
 H         -6.0065391577        3.1465230229        1.0729859097
