  38
 
 O         -3.1862129214        2.3371090094       -0.0000527109
 C         -4.0871765974        1.3556686510       -0.0000186998
 C         -5.4413172506        1.6982943436       -0.0000128666
 C         -6.4224065575        0.7312674670        0.0000255190
 C         -6.0523256125       -0.6055712776        0.0000579085
 Br        -7.3992161791       -1.9564892298        0.0001158701
 C         -4.7260269739       -0.9806718680        0.0000501467
 C         -3.7232080765       -0.0102965240        0.0000110429
 C         -2.3216169191       -0.3683085933        0.0000024298
 N         -1.3454730021        0.5170519754       -0.0000028818
 C         -0.1789354628       -0.1890710499       -0.0000080474
 C         -0.4708642966       -1.5625718306       -0.0000083762
 C          0.5397906829       -2.5203738579       -0.0000139995
 C          1.8351913947       -2.0708162261       -0.0000184583
 C          2.1776143388       -0.6974087482       -0.0000151559
 C          3.5463510725       -0.2438310347       -0.0000151310
 C          4.6475321926       -1.1176996306       -0.0000308346
 C          5.9367105523       -0.6478024428       -0.0000268664
 C          6.1909985143        0.7249664678       -0.0000061370
 C          5.1415024390        1.6047995448        0.0000072786
 C          3.8119289600        1.1485775063        0.0000015336
 C          2.7381697782        2.0801698493        0.0000107476
 C          1.4513260255        1.6595781321        0.0000030834
 C          1.1516117437        0.2747298278       -0.0000083353
 N         -1.8374451840       -1.6482451623       -0.0000009110
 H         -2.2782487028        1.9319054808       -0.0000439959
 H         -5.6985851016        2.7452588406       -0.0000376064
 H         -7.4652188421        1.0072204274        0.0000317226
 H         -4.4768872684       -2.0308312053        0.0000777585
 H          0.3109610120       -3.5754093284       -0.0000140238
 H          2.6207562541       -2.8084902985       -0.0000220318
 H          4.4917306656       -2.1848363682       -0.0000476244
 H          6.7626859534       -1.3440733545       -0.0000399110
 H          7.2094425480        1.0841915820       -0.0000017316
 H          5.3204367806        2.6707370833        0.0000219506
 H          2.9762532560        3.1341690293        0.0000229717
 H          0.6257097328        2.3544864072        0.0000081075
 H         -2.3755409483       -2.4973845942       -0.0000017342
