  76
 
 N         10.7918385051       -0.2986377065        1.3257094624
 C          9.6765213272       -0.2384595076        1.0662159910
 C          8.3023608670       -0.1636669997        0.7457397080
 C          7.9005586203       -0.0816674700       -0.5884293169
 C          6.5576230763       -0.0053047237       -0.8950764318
 C          5.5960621577       -0.0134108069        0.1139070657
 C          4.1605373652        0.0705730052       -0.2244323536
 C          3.6381083737        1.2670523265       -0.7357206006
 C          4.4432863763        2.4248167847       -0.9016607613
 C          3.9191599011        3.5877147401       -1.3754070648
 C          2.5497376449        3.6711327924       -1.6954976033
 C          1.7416407766        2.5874009889       -1.5404204154
 C          2.2508428852        1.3480808934       -1.0707646380
 C          1.4239009616        0.2281475440       -0.8979473839
 C         -0.0030609912        0.2985041060       -1.2667252689
 C         -0.3796782512        0.4800599554       -2.5966182460
 C         -1.7129970314        0.5163046668       -2.9655540012
 C         -2.6811205347        0.3611405441       -1.9866431677
 C         -2.3071973801        0.1825314578       -0.6472825051
 C         -0.9811951597        0.1541260372       -0.2822295142
 C         -3.5262269478       -0.0296469448        0.2284476231
 C         -3.3901524531       -1.4228805682        0.8137896158
 C         -3.9122898317       -2.5287923428        0.1563190467
 C         -3.7081088786       -3.8033383508        0.6557496365
 C         -2.9701175047       -3.9902486909        1.8112392268
 C         -2.4382913780       -2.8929887800        2.4670199698
 C         -2.6452815679       -1.6188321401        1.9715229519
 C         -3.7210673858        1.0361134443        1.2858497619
 C         -4.5435498897        0.7905783616        2.3794401454
 C         -4.7771820767        1.7786816068        3.3182108512
 C         -4.1961419515        3.0271576567        3.1747289676
 C         -3.3833554577        3.2812133593        2.0840255179
 C         -3.1505965287        2.2938801016        1.1428179835
 C         -4.6468613221        0.0969458374       -0.7855266050
 C         -6.0076605554        0.0291221604       -0.5781098116
 C         -6.8559338501        0.1885543805       -1.6657701838
 C         -6.3485421221        0.4148669190       -2.9361656707
 C         -4.9819548913        0.4895677936       -3.1504294798
 C         -4.1313007511        0.3315722197       -2.0687747389
 C          1.9456719255       -0.9661500158       -0.3758293301
 C          1.1425885445       -2.1247715836       -0.2031946302
 C          1.6625253642       -3.2773573253        0.2997565121
 C          3.0272809140       -3.3526803118        0.6403849244
 C          3.8372845754       -2.2728911164        0.4684603881
 C          3.3316091528       -1.0441111175       -0.0322032742
 C          6.0062736136       -0.0981162543        1.4432120934
 C          7.3465105049       -0.1708195088        1.7627812438
 H          8.6450578366       -0.0782695456       -1.3710591957
 H          6.2406260396        0.0561982477       -1.9260194869
 H          5.4881874669        2.3719417691       -0.6336165289
 H          4.5456773350        4.4591365899       -1.4962218477
 H          2.1460532466        4.6066747201       -2.0536558912
 H          0.6880484683        2.6595229392       -1.7649142378
 H          0.3903524935        0.5779056742       -3.3486024161
 H         -1.9900618169        0.6525408870       -4.0002775634
 H         -0.6876352348        0.0246524247        0.7490659412
 H         -4.4824298766       -2.3945968761       -0.7514273707
 H         -4.1252989457       -4.6535446973        0.1359423032
 H         -2.8092611092       -4.9854920803        2.1987128532
 H         -1.8576157298       -3.0289565177        3.3678337529
 H         -2.2325410617       -0.7678284502        2.4940480264
 H         -4.9945421850       -0.1837973330        2.5023301814
 H         -5.4161322252        1.5729563795        4.1647542435
 H         -4.3778225746        3.7983212677        3.9086798611
 H         -2.9285378413        4.2535367984        1.9623622014
 H         -2.5194130818        2.5032058380        0.2913327874
 H         -6.4099944037       -0.1457702629        0.4085567740
 H         -7.9247892983        0.1360067321       -1.5196444821
 H         -7.0277738907        0.5359333019       -3.7674202279
 H         -4.5886146838        0.6687276284       -4.1400774142
 H          0.1008726360       -2.0828928895       -0.4835260011
 H          1.0334655482       -4.1455726161        0.4295056457
 H          3.4275062200       -4.2786626435        1.0263381020
 H          4.8881847179       -2.3410197263        0.7081809325
 H          5.2622770064       -0.0994201838        2.2265026210
 H          7.6640922031       -0.2325037933        2.7934017466
