  76
 
 O          7.5436724320        3.5905974593        0.6789306943
 C          7.6750416970        2.4253589125        0.3588417047
 C          9.0040535099        1.8597808429        0.0101607299
 C          9.3554060430        0.5524267584        0.3393451103
 C         10.6163774882        0.0764371057        0.0301660779
 C         11.5316343064        0.8931367564       -0.6145849200
 C         11.1922378934        2.1981770811       -0.9341080553
 C          9.9389186384        2.6833197996       -0.6131812796
 C          6.5158890373        1.5022193075        0.2993724886
 C          5.4330360930        1.7331106870        1.1475416173
 C          4.3281095153        0.9102498399        1.1202450112
 C          4.2702988694       -0.1494991367        0.2147791149
 N          3.1519196339       -0.9830785438        0.1764099469
 C          3.1717231988       -2.3665937173        0.1632232992
 C          4.2491888682       -3.2374090807        0.2331640037
 C          3.9843032369       -4.5940445472        0.2359059406
 C          2.6808623942       -5.0810871239        0.1814303336
 C          1.6031251283       -4.2189666649        0.1405477354
 C          1.8447798548       -2.8521033907        0.1365417343
 C          0.9867585080       -1.6991866781        0.1238712421
 C         -0.3894344946       -1.5433238832        0.0771260401
 C         -0.9276032901       -0.2624636659        0.0561128719
 C         -2.3824132172       -0.0668732274        0.0192302974
 C         -2.9894856200        0.9434163346        0.7638492831
 C         -4.3561194605        1.1229899144        0.7409069891
 C         -5.1645762531        0.3009668613       -0.0445264228
 N         -6.5504685592        0.4830412114       -0.0755142827
 C         -7.0882815657        1.7737314125       -0.0231379160
 C         -8.2679761217        2.0207994820        0.6788923720
 C         -8.7974379425        3.2956559263        0.7236749597
 C         -8.1598602540        4.3440438778        0.0807075131
 C         -6.9854360543        4.1051178502       -0.6139985634
 C         -6.4525558006        2.8322260619       -0.6720224662
 C         -7.3993560159       -0.6261362722       -0.1591463296
 C         -8.5696392160       -0.5664889614       -0.9157171919
 C         -9.4062664518       -1.6628160400       -0.9914158611
 C         -9.0895545992       -2.8354692267       -0.3253802770
 C         -7.9262321989       -2.9016004825        0.4238201304
 C         -7.0873764278       -1.8080189195        0.5127986145
 C         -4.5626930172       -0.7069205271       -0.7983800666
 C         -3.1968027333       -0.8886389958       -0.7586722273
 C         -0.0695331144        0.8460581927        0.0583548888
 C          1.3032191220        0.7131942194        0.0990034828
 C          1.8324070541       -0.5680888135        0.1550729964
 C          5.3370412183       -0.3647552488       -0.6580544936
 C          6.4510078953        0.4473528874       -0.6102062345
 H          8.6503916545       -0.0800485334        0.8592682117
 H         10.8878220704       -0.9353036167        0.2937761585
 H         12.5125990803        0.5140287611       -0.8605774551
 H         11.9084150513        2.8379934206       -1.4279777173
 H          9.6599644272        3.7005033631       -0.8448317392
 H          5.4875115532        2.5598401269        1.8399827238
 H          3.5102718958        1.0692216580        1.8065207998
 H          5.2633431671       -2.8730551618        0.2972856577
 H          4.8073900690       -5.2915045494        0.2857450157
 H          2.5155404147       -6.1481076993        0.1825709750
 H          0.5914457768       -4.5947926272        0.1182223913
 H         -1.0340834418       -2.4090824912        0.0747547071
 H         -2.3838531597        1.5774251243        1.3947217739
 H         -4.8108637796        1.8997151285        1.3383984601
 H         -8.7620506713        1.2072130494        1.1897241105
 H         -9.7106926141        3.4731084083        1.2725752389
 H         -8.5750771348        5.3396116576        0.1207595908
 H         -6.4839488718        4.9151944739       -1.1230532992
 H         -5.5422794372        2.6468802152       -1.2233597719
 H         -8.8142191368        0.3433239817       -1.4442772817
 H        -10.3083859268       -1.6033943326       -1.5825661775
 H         -9.7443774087       -3.6911902193       -0.3896693751
 H         -7.6736332125       -3.8098502579        0.9512273422
 H         -6.1861540912       -1.8589693303        1.1062015355
 H         -5.1762402250       -1.3420608933       -1.4207010356
 H         -2.7484987218       -1.6614961638       -1.3657001759
 H         -0.4979868330        1.8355717601        0.0003259324
 H          1.9403457722        1.5841127286        0.0704671243
 H          5.2739404988       -1.1591972554       -1.3864018510
 H          7.2614500069        0.2844616390       -1.3053955063
