  86
 
 C          9.1454425393        2.7743437591       -1.6993749640
 C          9.1053601541        1.3115235332       -2.1410621649
 N          9.3436779369        0.4172704092       -1.0409783431
 C         10.5763732577       -0.0103814936       -0.6078791483
 C         11.8367083413        0.2354971759       -1.1349931348
 C         12.9250643256       -0.3360736287       -0.5044990769
 C         12.7745287368       -1.1345412204        0.6273006136
 C         11.5255154582       -1.3809853249        1.1604372763
 C         10.4155826319       -0.8173373160        0.5447532305
 C          9.0089912147       -0.8514837252        0.8199514181
 C          8.2355491173       -1.4543434105        1.8037066933
 C          6.8709008023       -1.2654053260        1.7858343805
 C          6.2504392574       -0.4889732080        0.7963660255
 C          4.7927011310       -0.3140907164        0.8095429262
 C          4.1075938505       -0.0892265829        2.0027581685
 C          2.7401861319        0.0797689271        2.0094432711
 C          1.9923938439        0.0146290112        0.8291160814
 C          0.5554587968        0.1856409531        0.8989861506
 C         -0.3210628368       -0.0473589925       -0.0898484922
 C         -1.7590165650        0.1103631626       -0.0158528073
 C         -2.4115015950        0.7410763781        1.0478314168
 C         -3.7837477630        0.8598693944        1.0681980288
 C         -4.5659094549        0.3372649389        0.0376185299
 C         -6.0281956766        0.4770253927        0.0707162893
 C         -6.8606725998       -0.5393746407       -0.2508419907
 C         -8.3111287316       -0.3496271240       -0.4146583395
 C         -8.8171759640        0.7169548234       -1.1553877877
 C        -10.1800472796        0.8709653452       -1.3212040603
 C        -11.0595594134       -0.0356483959       -0.7522675875
 C        -10.5665234866       -1.1060119821       -0.0247025723
 C         -9.2034802063       -1.2670032249        0.1371596913
 C         -6.3810326460       -1.9156348294       -0.4583750102
 C         -6.8560551733       -2.6680587234       -1.5309892352
 C         -6.4229514077       -3.9661164935       -1.7252098018
 C         -5.5203603663       -4.5381161479       -0.8442085116
 C         -5.0572901402       -3.8051850780        0.2363784950
 C         -5.4835901720       -2.5054574391        0.4300539270
 C         -6.5237622173        1.8019725653        0.4801793293
 C         -7.5507260887        1.9286717009        1.4135199752
 C         -7.9924584604        3.1781608302        1.8039807083
 C         -7.4168342423        4.3201673507        1.2713891958
 C         -6.3865151280        4.2051764252        0.3531304139
 C         -5.9377092388        2.9567918519       -0.0345383500
 C         -3.9206427820       -0.2744997746       -1.0370973072
 C         -2.5480186627       -0.3790960585       -1.0629372613
 C          2.6848348621       -0.2089754877       -0.3644702104
 C          4.0538498485       -0.3647385061       -0.3723638143
 C          7.0130633441        0.1152418802       -0.1966026413
 C          8.3865872017       -0.0660779000       -0.1802448088
 H         10.1173507466        3.0108002558       -1.2723975613
 H          8.9659710395        3.4291412020       -2.5480358919
 H          8.3840285647        2.9598867851       -0.9452692923
 H          9.8652306197        1.1300902897       -2.9062314316
 H          8.1283087687        1.0776550932       -2.5730896784
 H         11.9732765466        0.8552035777       -2.0088127036
 H         13.9158218258       -0.1582199969       -0.8966911706
 H         13.6509759623       -1.5625655267        1.0908904698
 H         11.4085813581       -1.9981996966        2.0386116585
 H          8.6986465057       -2.0602869548        2.5680807457
 H          6.2552730391       -1.7415298341        2.5345079304
 H          4.6606546481       -0.0235562760        2.9286002714
 H          2.2308219301        0.2612331007        2.9459611037
 H          0.1906141182        0.5075642123        1.8658227355
 H          0.0390026597       -0.4169425583       -1.0412865494
 H         -1.8376809332        1.1548697320        1.8629627928
 H         -4.2686856816        1.3519413384        1.8999666590
 H         -8.1341677814        1.4189162349       -1.6109161336
 H        -10.5587267677        1.7008107675       -1.9001487752
 H        -12.1248130665        0.0884593296       -0.8803442257
 H        -11.2474297112       -1.8193742286        0.4168156635
 H         -8.8197861269       -2.1020579920        0.7065635793
 H         -7.5591047684       -2.2220109666       -2.2205657381
 H         -6.7922183408       -4.5348529363       -2.5664305353
 H         -5.1833564051       -5.5530453530       -0.9956260461
 H         -4.3623664186       -4.2503325707        0.9335778257
 H         -5.1302407603       -1.9418307369        1.2810704341
 H         -7.9937967668        1.0406838087        1.8400356265
 H         -8.7881066565        3.2621981828        2.5299755905
 H         -7.7662023624        5.2959775468        1.5752419956
 H         -5.9297349795        5.0923365699       -0.0613267380
 H         -5.1343471087        2.8680421894       -0.7525345291
 H         -4.5059772125       -0.6553103752       -1.8612688283
 H         -2.0676051336       -0.8534798138       -1.9074498168
 H          2.1463594465       -0.2528280716       -1.2990035068
 H          4.5632664709       -0.5515747036       -1.3071156746
 H          6.5353212457        0.7336373176       -0.9419050698
