  55
 
 C         -5.9204426524        2.4542370768        2.4087072475
 C         -4.5682212449        2.7282994966        2.3781154107
 C         -3.7208400339        1.9871331262        1.5686666284
 C         -4.2165429980        0.9686387865        0.7638970520
 C         -5.5848310021        0.6745517125        0.8304772097
 C         -6.4253591634        1.4162355822        1.6394788336
 O         -6.1500806951       -0.3553403178        0.1220212658
 C         -5.3174762327       -1.1201524176       -0.6567845350
 C         -5.9003411482       -2.1633202517       -1.3522486429
 C         -5.1354085175       -2.9615274760       -2.1893353793
 C         -3.7887096414       -2.6975018612       -2.3345057160
 C         -3.1983484912       -1.6554619227       -1.6359139488
 C         -3.9445622437       -0.8628638195       -0.7730249128
 N         -3.3884843817        0.2052634408       -0.0623265203
 C         -2.0272814560        0.5419275446       -0.1999977227
 C         -1.6908041660        1.8100149530       -0.7343684391
 C         -0.3892281850        2.1739785714       -0.9056778620
 C          0.6475584430        1.2843202397       -0.5449679897
 N          1.9256604413        1.6397770575       -0.7198700812
 C          2.8634054531        0.7818667823       -0.3594033642
 C          4.2513814864        1.1383713731       -0.5501438474
 C          4.5675463200        2.3691353175       -1.1325254172
 C          5.8774932839        2.7343075729       -1.3362632343
 C          6.8945832373        1.8652744526       -0.9576985853
 C          6.5965332586        0.6502534324       -0.3803856834
 C          5.2734106411        0.2511670725       -0.1577354781
 C          4.9319952871       -1.0266272353        0.4523694457
 C          5.9023078885       -1.9366768016        0.8882761799
 C          5.5545221514       -3.1413987788        1.4593351122
 C          4.2171812742       -3.4870507551        1.6170623017
 C          3.2410198182       -2.6121623388        1.2015190400
 C          3.5803268614       -1.3856244112        0.6236065208
 C          2.5278457539       -0.4841147404        0.2096292846
 N          1.2704701734       -0.8516517676        0.3707884254
 C          0.3110650501        0.0087133403       -0.0006833369
 C         -1.0427857721       -0.3423314596        0.1634528479
 H         -6.5843907824        3.0300306536        3.0338792434
 H         -4.1567808197        3.5180270342        2.9876747028
 H         -2.6629573016        2.1989094773        1.5689453755
 H         -7.4731055867        1.1621075988        1.6562134611
 H         -6.9587224942       -2.3289820690       -1.2293884443
 H         -5.5985405829       -3.7738354590       -2.7267918541
 H         -3.1822920819       -3.2975816530       -2.9953083913
 H         -2.1479218195       -1.4529707407       -1.7724546646
 H         -2.4918854578        2.4767050834       -1.0187162246
 H         -0.1180978824        3.1312340823       -1.3227177279
 H          3.7520910496        3.0158341361       -1.4158865236
 H          6.1167504867        3.6855117072       -1.7876830037
 H          7.9266376013        2.1420863837       -1.1167635229
 H          7.4124015516        0.0025633113       -0.1020849525
 H          6.9498894420       -1.7034937578        0.7846193973
 H          6.3285091568       -3.8204114568        1.7863736008
 H          3.9502936739       -4.4329886502        2.0639732384
 H          2.1932790779       -2.8440428465        1.3106598127
 H         -1.2797180283       -1.3083614108        0.5819193681
