146

C     -0.916465   -7.725369    2.388673
C     -1.294187   -7.185510    1.006113
C     -0.923352   -8.270802    0.021288
C     -2.786569   -6.993815    1.033663
C     -0.550142   -5.942218    0.795757
C      0.305018   -5.450015    1.759628
C      0.998592   -4.286155    1.553827
C      0.891214   -3.534875    0.382452
N      1.654908   -2.331129    0.212753
C      3.074192   -2.440627    0.225749
C      3.626750   -3.695362    0.352365
C      4.996590   -3.814208    0.354737
C      5.829826   -2.742489    0.236384
C      7.286366   -2.924168    0.245630
C      7.781421   -2.790620    1.677903
C      8.047495   -2.018730   -0.672263
C      7.607660   -4.352439   -0.163702
C      5.213147   -1.489598    0.110147
C      3.873584   -1.307411    0.101177
B      3.143733    0.035294   -0.048934
C      3.940242    1.351559   -0.189715
C      5.280522    1.471164   -0.200026
C      5.948411    2.700758   -0.333844
C      7.425205    2.785008   -0.337413
C      7.969081    2.649017   -1.752715
C      7.836320    4.186678    0.129149
C      8.080379    1.807606    0.608643
C      5.140491    3.797982   -0.456492
C      3.785644    3.741839   -0.453028
C      3.178385    2.507364   -0.317845
N      1.755448    2.468767   -0.315859
C      1.033781    3.689682   -0.429610
C      0.172905    3.914428   -1.521522
C     -0.542329    5.093340   -1.623880
C     -0.439908    6.083193   -0.668599
C     -1.249869    7.315055   -0.865223
C     -2.581763    7.135026   -0.152353
C     -0.526316    8.451025   -0.176979
C     -1.459318    7.605090   -2.338078
C      0.395260    5.880629    0.404465
C      1.136028    4.699262    0.542121
C      0.985297    1.281286   -0.187645
C     -0.407000    1.284841   -0.184443
C     -1.117906    0.115208   -0.053847
N     -2.543794    0.080462   -0.043600
C     -3.316841   -0.721800   -0.813767
C     -3.021261   -1.672755   -1.767527
C     -4.014031   -2.380390   -2.436585
C     -5.327499   -2.140385   -2.153996
C     -6.384133   -2.903777   -2.877875
C     -6.750975   -2.099404   -4.107250
C     -5.872525   -4.277109   -3.278240
C     -7.602598   -3.034566   -1.999664
C     -5.645523   -1.182815   -1.192851
C     -4.656731   -0.492656   -0.541332
C     -4.678861    0.487177    0.431649
C     -5.714114    1.136152    1.109146
C     -5.448898    2.104494    2.059759
C     -6.565613    2.764385    2.749941
C     -7.043811    4.004896    2.032832
C     -7.728400    1.798383    2.832473
C     -6.238944    3.187343    4.168296
C     -4.135403    2.424067    2.332887
C     -3.075992    1.803127    1.682312
C     -3.370172    0.836830    0.734525
C     -0.465886   -1.098134    0.077930
C      0.935105   -1.136768    0.078634
C      1.578525    0.042798   -0.052598
C      0.041315   -4.024767   -0.574722
C     -0.658761   -5.199430   -0.367062
H     -1.444068   -8.703437    2.569881
H      0.170361   -7.932658    2.405263
H     -1.189129   -7.017485    3.191585
H      0.169305   -8.196760   -0.155442
H     -1.506317   -8.262360   -0.907703
H     -1.124032   -9.250068    0.521586
H     -3.223757   -8.023362    0.933500
H     -3.133755   -6.355437    0.200167
H     -3.113565   -6.602346    2.022572
H      0.471759   -5.947402    2.715905
H      1.670618   -3.890216    2.299925
H      3.067162   -4.611343    0.443222
H      5.451135   -4.789050    0.453121
H      7.086446   -3.402431    2.294909
H      7.793184   -1.732338    1.984053
H      8.764553   -3.255923    1.737385
H      8.813781   -1.472254   -0.054259
H      7.443408   -1.235255   -1.135479
H      8.574855   -2.581644   -1.471479
H      7.533749   -5.026839    0.724609
H      6.951193   -4.680241   -0.992649
H      8.682234   -4.347988   -0.478469
H      5.877468   -0.701148    0.022583
H      5.914299    0.658331   -0.105304
H      9.025379    3.008549   -1.688389
H      7.418133    3.349272   -2.397099
H      7.888816    1.627476   -2.152538
H      7.876575    4.848114   -0.752109
H      7.143695    4.553809    0.911244
H      8.851748    4.126429    0.580611
H      8.590101    0.971429    0.049583
H      8.913097    2.295649    1.186140
H      7.396113    1.411739    1.376372
H      5.631956    4.755624   -0.561549
H      3.245467    4.672562   -0.564585
H      0.065527    3.156129   -2.295733
H     -1.199432    5.227072   -2.488955
H     -2.361217    7.136624    0.944466
H     -3.166543    8.077717   -0.324988
H     -3.166308    6.285321   -0.501918
H     -0.598531    9.394505   -0.757035
H      0.565190    8.216752   -0.110721
H     -0.868065    8.599079    0.880088
H     -2.284663    6.943664   -2.656718
H     -1.727370    8.665033   -2.500708
H     -0.505731    7.377420   -2.848661
H      0.487896    6.628838    1.151480
H      1.798261    4.552714    1.402898
H     -0.959380    2.190486   -0.277705
H     -1.997942   -1.910656   -2.037991
H     -3.778742   -3.128333   -3.186663
H     -7.555362   -1.384133   -3.813429
H     -7.137964   -2.763718   -4.905568
H     -5.902198   -1.473378   -4.472977
H     -5.406278   -4.189022   -4.263758
H     -5.176459   -4.592652   -2.464158
H     -6.736763   -4.937245   -3.386108
H     -8.117844   -4.012929   -2.164779
H     -7.274381   -3.020832   -0.923120
H     -8.333800   -2.235129   -2.207082
H     -6.669840   -0.973246   -0.950313
H     -6.736141    0.860320    0.870011
H     -6.976342    3.947107    0.938247
H     -6.559875    4.938799    2.403516
H     -8.120186    4.122517    2.280512
H     -7.386505    0.793087    3.156330
H     -8.494540    2.174511    3.559996
H     -8.283534    1.752569    1.856771
H     -7.153401    3.739531    4.524179
H     -5.435649    3.960026    4.211107
H     -5.990839    2.365984    4.839441
H     -3.938318    3.174844    3.069733
H     -2.035997    2.074479    1.917372
H     -1.049420   -2.000144    0.181806
H     -0.080049   -3.473789   -1.515057
H     -1.326177   -5.581839   -1.122896
