  56
 
 O          3.4130954772        3.5626033752        0.2824585156
 S          3.1336083935        2.3477079913       -0.4601063045
 O          3.2994587708        2.4563262695       -1.9049750324
 C          4.1711572348        1.0214447542        0.0986694710
 C          5.4970470136        1.2931745913        0.3675332541
 C          6.3636225985        0.2710163857        0.7207222210
 C          5.8700943375       -1.0244706770        0.7815515251
 C          4.5435581474       -1.2969617419        0.5211950088
 C          3.6431609465       -0.2685834158        0.1767330686
 N          2.3125169731       -0.5640781409       -0.0483228591
 C          1.9647024499       -1.9518717511       -0.1434416965
 C          2.1207596319       -2.6053130275       -1.3577722086
 C          1.7978541950       -3.9484057249       -1.4604707664
 C          1.3173930550       -4.6346143047       -0.3575904694
 C          1.1580243023       -3.9786979418        0.8528322811
 C          1.4827455377       -2.6378671864        0.9649539494
 C          1.2758521082        0.3571829751       -0.0965200300
 C         -0.0387231238       -0.0617382683       -0.0915456002
 C         -1.1158980735        0.8582543283       -0.0556507842
 N         -2.4198090443        0.4228189253       -0.1107840394
 C         -2.7853928568       -0.9156244949       -0.2615892972
 C         -2.2267646044       -1.7315565267       -1.2624735031
 C         -2.6161758015       -3.0406901619       -1.3964875070
 C         -3.5744384808       -3.5934772924       -0.5387725101
 C         -4.1838965194       -2.7913671003        0.4105020520
 C         -3.8141470166       -1.4647098268        0.5409220204
 S         -4.6267068291       -0.4242956896        1.7097308575
 C         -4.6387657335        1.0195929983        0.7008502678
 C         -5.7236440090        1.8766749448        0.7145773449
 C         -5.7329634430        3.0016950676       -0.0934609337
 C         -4.6533779868        3.2455321494       -0.9511431074
 C         -3.5644039219        2.4112583698       -0.9616707152
 C         -3.5096985036        1.2907492299       -0.1099917224
 C         -0.8204360115        2.2460046551        0.1371029088
 C          0.4737600102        2.6679080818        0.0863317714
 C          1.5281119713        1.7591553561       -0.0985127177
 H          5.8225147695        2.3194171940        0.2894235847
 H          7.3992519594        0.4805327792        0.9342780471
 H          6.5298003969       -1.8380189594        1.0436144193
 H          4.1904738119       -2.3131293726        0.5872807655
 H          2.4988563904       -2.0583210037       -2.2087404654
 H          1.9234096324       -4.4567238652       -2.4044789579
 H          1.0666178291       -5.6811872294       -0.4403711190
 H          0.7838599307       -4.5116136306        1.7136673165
 H          1.3696076444       -2.1169068119        1.9039647737
 H         -0.2590395834       -1.1146143859       -0.0670260910
 H         -1.5134991614       -1.2954522609       -1.9446616926
 H         -2.1847205507       -3.6465771844       -2.1779464376
 H         -3.8601951157       -4.6279385326       -0.6364279189
 H         -4.9577115424       -3.1841226064        1.0516377300
 H         -6.5607060642        1.6536885416        1.3576860966
 H         -6.5781790870        3.6701597939       -0.0796819396
 H         -4.6805796253        4.0940420054       -1.6174237663
 H         -2.7442664172        2.5800695030       -1.6429513284
 H         -1.6112132055        2.9452229262        0.3488050660
 H          0.7384851660        3.7080546768        0.1972572535
