  58
 
 C         -6.6720186156       -2.4257882716       -0.3276836153
 C         -6.2167197976       -1.7184842243        0.7726462631
 C         -4.9168133866       -1.2507564521        0.8107234604
 C         -4.0513815449       -1.4869554155       -0.2541150244
 C         -2.6595142124       -1.0044663635       -0.2213958276
 C         -1.6364376231       -1.8874839759       -0.4789243865
 C         -0.2975307138       -1.4775529343       -0.4106448276
 N          0.7004345535       -2.3572952661       -0.6733812052
 C          1.9215033520       -1.9316041048       -0.5772172578
 C          2.2347624581       -0.5824282755       -0.2252394305
 N          3.5401104925       -0.1553334316       -0.1618525419
 C          3.8476216381        1.2165707128       -0.2679835668
 C          4.8201640358        1.7749031547        0.5566155926
 C          5.1449812457        3.1130482643        0.4376677164
 C          4.5018381337        3.9085032949       -0.4954422098
 C          3.5310828390        3.3549838626       -1.3137924711
 C          3.2055497412        2.0163892142       -1.2079179132
 C          4.5829699263       -1.0572666516        0.1127649759
 C          5.7913948377       -0.9465159080       -0.5719118304
 C          6.8252715430       -1.8211941571       -0.2984882434
 C          6.6681387631       -2.8160472220        0.6529066968
 C          5.4696757313       -2.9266569213        1.3382318859
 C          4.4326567171       -2.0509192161        1.0777505222
 N          1.2806614610        0.2957410244        0.0021603216
 C          0.0051492679       -0.1312131872       -0.0755219298
 C         -1.0501211871        0.7623182673        0.1727145217
 C         -2.3589078945        0.3469496434        0.1019801798
 C         -3.4355727886        1.3259121258        0.3355317952
 C         -3.4099444800        2.1339532240        1.4686498107
 C         -4.4152318150        3.0555242275        1.6965119426
 C         -5.4529083857        3.1903477379        0.7898224921
 C         -5.4769908312        2.4026095929       -0.3491249925
 C         -4.4774052143        1.4754728480       -0.5758159548
 C         -4.5126491471       -2.2129833594       -1.3486145787
 C         -5.8155548675       -2.6741826836       -1.3868313580
 H         -7.6901995905       -2.7847973393       -0.3582633130
 H         -6.8781190593       -1.5300642114        1.6056873376
 H         -4.5633114578       -0.7086251578        1.6754588277
 H         -1.8426832150       -2.9214061137       -0.7111375017
 H          2.7053285853       -2.6394584762       -0.8132447139
 H          5.3172989536        1.1572722707        1.2904636024
 H          5.9003554283        3.5369293762        1.0828651252
 H          4.7552360732        4.9541946448       -0.5840852373
 H          3.0280634923        3.9681949365       -2.0468022709
 H          2.4535891598        1.5878031224       -1.8516449341
 H          5.9095087886       -0.1718121776       -1.3151575765
 H          7.7572388042       -1.7291172044       -0.8360485252
 H          7.4770233456       -3.4993186081        0.8620279753
 H          5.3431904777       -3.6930033406        2.0883959769
 H          3.5047708793       -2.1262204719        1.6260751118
 H         -0.8047524631        1.7874415867        0.4055400595
 H         -2.6055852383        2.0209163523        2.1815376996
 H         -4.3896238940        3.6696376163        2.5850805248
 H         -6.2390447440        3.9089940428        0.9688480122
 H         -6.2795282081        2.5103325809       -1.0640797561
 H         -4.4954131071        0.8697085507       -1.4698445603
 H         -3.8473126255       -2.3974936896       -2.1800858071
 H         -6.1642926174       -3.2282084627       -2.2463670687
