  72
 
 C         -7.7475224019       -2.7066593365        1.0785039523
 C         -8.1963687108       -1.8767853127       -0.1238008626
 N         -7.5448021435       -0.5780391907       -0.1350332098
 C         -8.3097608891        0.5818266675       -0.1844156894
 C         -9.5378705103        0.6062795408       -0.8549140833
 C        -10.3131141783        1.7484462545       -0.8869583134
 C         -9.8807517322        2.9103515482       -0.2659350702
 C         -8.6526867444        2.9214917020        0.3669608382
 C         -7.8732352767        1.7746124270        0.4060502295
 S         -6.3321157304        1.8506154915        1.2680032477
 C         -5.4611195134        0.5691838271        0.4108009826
 C         -4.0880426209        0.6351071459        0.3900619059
 C         -3.3071652065       -0.3852375788       -0.1845838377
 C         -1.8754379448       -0.3198573397       -0.2138561354
 C         -1.1822573261        0.9036152502       -0.0095981602
 C          0.1781556525        1.0018832275        0.0032087383
 C          1.0444267018       -0.1073931211       -0.1871824732
 C          2.4723043929        0.0380349074       -0.1342809259
 C          3.0826244315        1.1444108200        0.4946294167
 C          4.4458712632        1.2836398232        0.5482511047
 C          5.2897612738        0.3225802502       -0.0254578203
 N          6.6703672919        0.4607381211        0.0321182860
 C          7.4888317258       -0.6713021503        0.1411650983
 C          8.7035605749       -0.7316723309       -0.5428820195
 C          9.5100790435       -1.8473524402       -0.4269226637
 C          9.1197319383       -2.9162071486        0.3646278537
 C          7.9133585469       -2.8607778237        1.0451494702
 C          7.1016578406       -1.7478993219        0.9403306564
 C          7.2557022878        1.7326464653       -0.0157708392
 C          6.7336294608        2.7191473160       -0.8535381465
 C          7.3145409714        3.9718401615       -0.8959618837
 C          8.4221997438        4.2585524357       -0.1134314533
 C          8.9467295470        3.2803606918        0.7169147339
 C          8.3707299749        2.0258253826        0.7704413729
 C          4.6998507589       -0.7842500912       -0.6523443371
 C          3.3367033317       -0.9199396553       -0.7030882269
 C          0.3947755680       -1.3445413600       -0.4358185850
 N          0.9917383462       -2.5166335542       -0.6322153801
 S         -0.1559270559       -3.6767217334       -0.8320921349
 N         -1.4652441036       -2.6955526898       -0.6585516111
 C         -1.0488016222       -1.4501167581       -0.4504565538
 C         -4.0172691454       -1.4732038610       -0.7374970739
 C         -5.3860354670       -1.5328823517       -0.7187725551
 C         -6.1644915580       -0.5148896943       -0.1434754870
 H         -7.9595232938       -2.1710472672        2.0014550425
 H         -8.2921426317       -3.6469210077        1.0895706372
 H         -6.6829487394       -2.9211638405        1.0421352829
 H         -9.2696152611       -1.7107603997       -0.0381331610
 H         -8.0051882464       -2.4186126422       -1.0559759302
 H         -9.8796491796       -0.2722729029       -1.3784225859
 H        -11.2574851850        1.7320706468       -1.4091885751
 H        -10.4867607501        3.8023260062       -0.2850541347
 H         -8.2835186796        3.8148955480        0.8468979716
 H         -3.6199562570        1.4756729991        0.8774907348
 H         -1.7579600787        1.8094853466        0.1021619511
 H          0.6155283989        1.9810941075        0.1240724846
 H          2.4732716779        1.8833914926        0.9912476527
 H          4.8803006944        2.1289673456        1.0624410428
 H          9.0028468423        0.0959175383       -1.1690959726
 H         10.4458600975       -1.8854942913       -0.9647024036
 H          9.7511967411       -3.7874571306        0.4506330660
 H          7.6043756102       -3.6864009683        1.6690459038
 H          6.1671989191       -1.7000207426        1.4800942311
 H          5.8787746674        2.4907327461       -1.4731127214
 H          6.9046700627        4.7261512340       -1.5513506455
 H          8.8740822047        5.2381590297       -0.1511385801
 H          9.8063875519        3.4978620224        1.3334215047
 H          8.7728497652        1.2673022901        1.4257312090
 H          5.3309092321       -1.5271682765       -1.1182054517
 H          2.9019361645       -1.7717477356       -1.2001439683
 H         -3.4540154924       -2.2707465043       -1.1935142792
 H         -5.8708865495       -2.3750757551       -1.1848261415
