  96
 
 N         -2.4996554214        6.3852351970       -2.0688386422
 C         -2.8129220942        5.3365529529       -1.7113284520
 C         -3.2062537488        4.0517437676       -1.3020253511
 C         -3.9371019580        3.2577391631       -2.1763150114
 C         -4.3219338820        1.9769118417       -1.8024672600
 C         -3.9922048818        1.4795477572       -0.5540530015
 N         -4.3517787990        0.1582506426       -0.2221801544
 C         -3.4734919798       -0.8935394537       -0.0405609374
 C         -2.0328921504       -0.8136164352       -0.1214236965
 C         -1.2839468319       -1.7343116723        0.6245489767
 C          0.0892590110       -1.7055163955        0.6109353966
 C          0.7845413579       -0.7446857017       -0.1388247080
 C          2.2377885501       -0.6846511813       -0.1228004928
 C          3.0009022338       -1.8517351737       -0.4302311387
 C          2.3956559147       -3.0469108877       -0.8423767235
 C          3.1405320139       -4.1947229685       -1.0729297167
 C          4.5123569565       -4.1782011909       -0.8901667544
 C          5.1479834260       -2.9962264232       -0.5423136952
 C          4.4253155428       -1.8097107515       -0.3560397279
 C          5.0696109690       -0.5764812711       -0.0571516791
 N          6.4641143899       -0.5247360204       -0.0249360998
 C          7.3093050185       -0.7978619368       -1.0848853761
 C          6.9933781324       -1.1151079544       -2.3990734725
 C          8.0383805303       -1.3005639521       -3.2844982196
 C          9.3651848526       -1.1669103702       -2.8801824461
 C          9.6837341126       -0.8287321376       -1.5774509840
 C          8.6514932114       -0.6386375322       -0.6699654699
 C          8.6068481786       -0.2657191594        0.7198668166
 C          9.5813191315       -0.0096622765        1.6738285751
 C          9.1812606528        0.3055003126        2.9597375475
 C          7.8313071859        0.3521420601        3.3017015806
 C          6.8427399150        0.0991114274        2.3693632371
 C          7.2392437413       -0.1961347424        1.0720345144
 C          4.3203475245        0.6046487895        0.2053646958
 C          4.9426671291        1.8413675375        0.4250386280
 C          4.2043048223        2.9741514082        0.7312351692
 C          2.8268151541        2.8905081383        0.8365782382
 C          2.1826089309        1.6894836160        0.5764987402
 C          2.8945829014        0.5397991566        0.2080982254
 C          0.0307510935        0.1523682856       -0.9079313708
 C         -1.3444352988        0.1109185317       -0.9131109484
 N         -4.1051453141       -2.0140997829        0.2359535891
 C         -5.4262253083       -1.7156072328        0.2278442446
 C         -6.5230378642       -2.6002705081        0.4289767840
 C         -6.3211026139       -3.9660569734        0.6566040621
 C         -7.3928641181       -4.8091194742        0.8183114590
 C         -8.6850389599       -4.2923924467        0.7493085185
 C         -8.8951700207       -2.9500111891        0.5300371196
 C         -7.8262842021       -2.0549943329        0.3695829198
 C         -8.0151711295       -0.6266175813        0.1732464738
 C         -9.2908321919       -0.0454692348        0.1884364310
 C         -9.4778844908        1.3103597132        0.0495565882
 C         -8.3819175498        2.1555850992       -0.0942491404
 C         -7.1154414121        1.6256554796       -0.1239278597
 C         -6.9041184960        0.2428171058       -0.0147373406
 C         -5.6144302277       -0.3569656140       -0.0407980791
 C         -3.2704434107        2.2700008308        0.3817376585
 C         -2.9572161367        1.8144114472        1.6777547018
 C         -2.2537381914        2.6058182989        2.5476806109
 C         -1.8334020396        3.8828523174        2.1603445020
 C         -2.1344560557        4.3599121391        0.9101746679
 C         -2.8616355210        3.5746379560       -0.0028034167
 H         -4.1958348522        3.6356266600       -3.1542601922
 H         -4.8801330019        1.3576496802       -2.4895941184
 H         -1.8153075827       -2.4570968927        1.2241649469
 H          0.6466189279       -2.3985389600        1.2237733037
 H          1.3275613531       -3.0757540853       -0.9899515798
 H          2.6424796020       -5.1001379097       -1.3858859924
 H          5.0952068138       -5.0751316084       -1.0362683749
 H          6.2199846706       -2.9934782302       -0.4180499069
 H          5.9667423466       -1.2169213095       -2.7164013843
 H          7.8213741394       -1.5526098895       -4.3119498857
 H         10.1547209392       -1.3228523595       -3.6002693884
 H         10.7119431866       -0.7086987131       -1.2715560711
 H         10.6282379683       -0.0615056865        1.4159450377
 H          9.9245780832        0.5117803084        3.7154806491
 H          7.5509148154        0.5891195302        4.3173220223
 H          5.7982099449        0.1331375901        2.6389734120
 H          6.0172646998        1.9171550207        0.3596266018
 H          4.7105999207        3.9120857155        0.9032389917
 H          2.2456458153        3.7578021788        1.1120575568
 H          1.1087768187        1.6422757119        0.6639957112
 H          0.5429321074        0.8598215497       -1.5438631476
 H         -1.8849358447        0.7845280589       -1.5594259058
 H         -5.3045540154       -4.3270301463        0.6930059396
 H         -7.2399379048       -5.8638261352        0.9933163630
 H         -9.5323630177       -4.9520598566        0.8689474108
 H         -9.9127643576       -2.5968977392        0.4814452656
 H        -10.1613284780       -0.6668758811        0.3216560038
 H        -10.4768478984        1.7206023617        0.0658223785
 H         -8.5239795751        3.2229046084       -0.1784948953
 H         -6.2675577702        2.2850173590       -0.2178722541
 H         -3.2817325970        0.8307284041        1.9842816904
 H         -2.0211482287        2.2436363921        3.5378837422
 H         -1.2744667165        4.4945814857        2.8525186466
 H         -1.8212380376        5.3487784360        0.6063674596
