55
 xtb: 6.7.1 (edcfbbe)
C           -0.02223628832842       -0.67185848251428        1.20353938764664
C           -0.00869176414509       -1.26250198004005       -0.17643221963616
C            1.20001577409565       -1.50286315346579       -0.83727789812906
C            2.50410497738373       -1.26428535770407       -0.18495349236663
C            2.86410441778649       -1.92121507212904        0.98787909063245
C            4.10453289207049       -1.70364614706585        1.55414219695132
C            5.01052333173287       -0.82978015538478        0.96834890574575
C            4.66429600223509       -0.16598301829158       -0.20400690813614
C            3.41618534849363       -0.39430549646525       -0.77011254257467
O            5.46049707727677        0.71962864392125       -0.88344959871184
C            6.62340965777918        1.20514213538934       -0.34601946462820
C            7.20655389234113        2.25893879018862       -1.04408284897939
C            8.38599189416632        2.83252423252531       -0.60528328462422
C            8.99483365318376        2.36375496857564        0.54656706265681
C            8.42046873657676        1.31923104593267        1.24885097629428
C            7.24184660517357        0.73266561869936        0.80738091463769
S            6.57789994944296       -0.59954756275496        1.77135349068470
C            1.20037286240658       -1.97062971480952       -2.14804535500694
C            0.01187351877884       -2.21316714646120       -2.81007091094205
C           -1.18714697032773       -1.98596768489789       -2.16146430308961
C           -1.20652299552854       -1.51879879533369       -0.85088699782759
C           -2.52008805878256       -1.29664952209830       -0.21094870714589
C           -2.89042254918907       -1.97487220074159        0.94638450851169
C           -4.13833529032228       -1.77273099064104        1.50195973738880
C           -5.04073320161028       -0.89259009189515        0.92030039441996
C           -4.68279907419511       -0.20518409852245       -0.23479626666879
C           -3.42778190710831       -0.41888138138907       -0.79102797350181
O           -5.47870580763930        0.68712298254754       -0.90675490004380
C           -6.61012617089488        1.20850309791994       -0.33382667530955
C           -7.15150938806813        2.31649363696219       -0.97926918261233
C           -8.30056801324835        2.92093313385760       -0.50280177506779
C           -8.91769578009363        2.43107765166267        0.63588580528673
C           -8.38313868855029        1.33388178812371        1.28734547366895
C           -7.23687057099635        0.71541925349357        0.80644615364218
S           -6.65153874253975       -0.74051595234797        1.65238235896692
H            0.87873518397004       -0.05978922306143        1.35769217777123
H           -0.89296479783272       -0.06039265697396        1.35264219677033
H           -0.00849463532130       -1.45351060772060        1.96242851805066
H            2.19136432209527       -2.63836571120686        1.43207578274303
H            4.40935644699634       -2.24681569075187        2.43608672284332
H            3.17006677225520        0.13000256446814       -1.68203892881147
H            6.68670970667803        2.63345091238724       -1.91008644225730
H            8.78074240381024        3.69336840607902       -1.11289103142196
H            9.87540772977518        2.84053285916468        0.94300048354499
H            8.86944041315715        0.93813788672260        2.15738229269713
H            2.13746397522672       -2.16114509040211       -2.64921816790546
H            0.00578859369145       -2.57867491665557       -3.82665341166820
H           -2.13140658938567       -2.16892728358963       -2.65610913454643
H           -2.19944325311304       -2.65520510138573        1.41893478838722
H           -4.42162438646408       -2.27201777541072        2.41723603240326
H           -3.17097433215916        0.12751578525225       -1.68457794584114
H           -6.66913198266591        2.65471040687444       -1.88844892889782
H           -8.74691508596338        3.73118555745304       -1.07124492200802
H           -9.84598913023376        2.86719887202189        0.97746735655963
H           -8.86052027997206        0.93751438044270        2.16553906081264
