  50
 
 C          5.9641212583        2.6215371228       -1.1500960221
 C          6.1876590321        1.8555841172       -0.0135864313
 C          5.2299618000        0.9412974634        0.3835859435
 C          4.0737900254        0.8175270839       -0.3918479338
 N          3.0750166369       -0.0936850962       -0.0502638120
 C          1.7084920139        0.1324394740       -0.1555437900
 C          1.0298373281        1.2467608034       -0.6268257186
 C         -0.3495308039        1.2284133183       -0.5917960764
 C         -1.0578489099        0.1318288562       -0.0812112947
 N         -2.4619304385        0.1658337773       -0.0640716253
 C         -3.2994211093       -0.8073198635       -0.5717364532
 C         -2.9858920940       -1.9869856035       -1.2325804435
 C         -4.0304345699       -2.7809102380       -1.6661863171
 C         -5.3589650763       -2.4148591551       -1.4569237660
 C         -5.6773250879       -1.2328718006       -0.8183563148
 C         -4.6444281564       -0.4164515489       -0.3747704920
 C         -4.6061057280        0.8553500850        0.2915236711
 C         -5.5875025160        1.7221255674        0.7558298044
 C         -5.1979390321        2.8850786090        1.3900950524
 C         -3.8490118384        3.1821091708        1.5762446075
 C         -2.8546463768        2.3370243678        1.1217482640
 C         -3.2393681459        1.1772712169        0.4629047937
 C         -0.3837508648       -0.9805622370        0.4001682077
 C          1.0031186614       -0.9796782215        0.3536269332
 C          1.9929462711       -1.9398131986        0.7544246724
 N          1.8329751764       -3.1540065470        1.2600053570
 C          2.9341523717       -3.8442030971        1.4955088105
 C          4.2192016114       -3.3827690207        1.2161660261
 C          4.4022198452       -2.1139430512        0.6894207348
 C          3.2594533983       -1.3561440687        0.4792091290
 N          3.8492283080        1.5670196855       -1.4643999999
 C          4.7690242093        2.4440390377       -1.8270659703
 H          6.6889590308        3.3433405132       -1.4899161616
 H          7.0916215736        1.9789703323        0.5645395467
 H          5.3517451492        0.3623436637        1.2847293086
 H          1.5662227387        2.0905454280       -1.0284742973
 H         -0.9044389027        2.0704473421       -0.9767846925
 H         -1.9601514847       -2.2739556388       -1.4087633992
 H         -3.8121487166       -3.7057931432       -2.1802417081
 H         -6.1474120965       -3.0648848651       -1.8074792562
 H         -6.7067304902       -0.9430868189       -0.6681725846
 H         -6.6329211055        1.4849851429        0.6253014117
 H         -5.9457432133        3.5729987505        1.7570086601
 H         -3.5748200677        4.0923442706        2.0897883015
 H         -1.8126540569        2.5684308830        1.2838145666
 H         -0.9145426943       -1.8242272958        0.8113106835
 H          2.7816136995       -4.8295595934        1.9151745688
 H          5.0693918419       -4.0199577494        1.4029325492
 H          5.3894134779       -1.7555201836        0.4388192674
 H          4.5254991174        3.0255439528       -2.7067843111
