  92
 
 C         -9.1910806769       -2.1709061243       -1.7344793124
 C         -7.9072336588       -1.5443519650       -1.2816477122
 C         -6.6920770170       -1.9260881359       -1.8301216308
 C         -5.5005449970       -1.3389843028       -1.4367388425
 C         -4.2316709647       -1.8000487196       -2.0971473628
 C         -5.4908795791       -0.3350152097       -0.4502937672
 B         -4.1498525297        0.3294676274        0.0166866740
 C         -3.9670210292        1.8831694702        0.1023464719
 C         -4.3579021474        2.7260248739       -0.9582661179
 C         -4.9602573566        2.1565780635       -2.2102441350
 C         -4.1624930801        4.0930006710       -0.8764266232
 C         -3.5965454705        4.6830395573        0.2469668650
 C         -3.3822930346        6.1651071430        0.3042857293
 C         -3.2308625976        3.8594245390        1.3002531640
 C         -3.4125922028        2.4866375337        1.2471485688
 C         -3.0129458656        1.6744788132        2.4466644283
 N         -3.0292094637       -0.5196948766        0.3686738674
 C         -3.1076690164       -1.7679991967        0.9923704866
 C         -4.2269473405       -2.4487852426        1.4381690509
 C         -4.0424684381       -3.6799322262        2.0527418014
 C         -2.7749637314       -4.2154278049        2.2343321283
 C         -1.6474825559       -3.5265273278        1.8157467307
 C         -1.8137660189       -2.2971761128        1.2004767948
 C         -0.8892894769       -1.3252402073        0.6750145805
 C          0.4723219480       -1.2787092356        0.6031841633
 C          1.1199212197       -0.1419194895        0.0390033302
 C          2.5356650920       -0.0494243387       -0.0197507752
 C          3.1918945726        1.2174319943       -0.1481683244
 C          4.5496757112        1.3495208259       -0.2094728606
 C          5.3365208904        0.1905015670       -0.1780130125
 C          4.7231409955       -1.0852827228       -0.0235707637
 C          3.3612510610       -1.2075170623        0.0638326220
 C          5.8005329670       -2.0437939708        0.0155726948
 C          5.8410403047       -3.4239368366        0.1212282121
 C          7.0741618515       -4.0553031417        0.0951000435
 C          8.2473988226       -3.3248819734       -0.0503537606
 C          8.2307583867       -1.9437790892       -0.1564058126
 C          7.0006984537       -1.3064554989       -0.1032938374
 N          6.7008508396        0.0415747872       -0.2166436712
 C          7.6342159355        1.0725149697       -0.3658722461
 C          7.4691797006        2.0293504617       -1.3669471085
 C          8.3904393958        3.0488711943       -1.5046652728
 C          9.4843677285        3.1249543549       -0.6560515075
 C          9.6509978246        2.1733763249        0.3384721051
 C          8.7328061750        1.1530364449        0.4897687103
 C          0.2775512349        0.9023287869       -0.4861854531
 C         -1.0826524589        0.8497781002       -0.4418141866
 C         -1.7025102725       -0.2511872428        0.1775768535
 C         -6.7287843528        0.0645218578        0.0906153244
 C         -6.7956524813        1.1279378538        1.1486365329
 C         -7.9029944280       -0.5420325506       -0.3207365575
 H         -9.6242248669       -1.5894793601       -2.5498816270
 H         -9.9154639596       -2.2006283578       -0.9231039925
 H         -9.0227087575       -3.1831677380       -2.0956630909
 H         -6.6744394529       -2.6979741375       -2.5880215163
 H         -4.4452690339       -2.2137870705       -3.0809351325
 H         -3.7565737884       -2.5819249379       -1.5027464451
 H         -3.5202194093       -0.9848815482       -2.2090221410
 H         -5.9628805797        1.7790805163       -2.0158100423
 H         -4.3655388953        1.3258921064       -2.5845890265
 H         -5.0238949661        2.9175773694       -2.9852048983
 H         -4.4573824731        4.7209772990       -1.7067687456
 H         -3.2243599613        6.4964604302        1.3280044548
 H         -4.2380481800        6.6952397223       -0.1101513194
 H         -2.5042175089        6.4398875927       -0.2820147178
 H         -2.7993147118        4.2988238662        2.1898175920
 H         -1.9893080049        1.3127905361        2.3373462807
 H         -3.6609877881        0.8105729385        2.5784956682
 H         -3.0566201395        2.2834634120        3.3477215089
 H         -5.2168989152       -2.0426424239        1.3085694903
 H         -4.9056658996       -4.2277029849        2.4002252212
 H         -2.6667772552       -5.1759232865        2.7161777496
 H         -0.6600066923       -3.9356183770        1.9683424293
 H          1.0555289929       -2.0845929320        1.0196699637
 H          2.5890521659        2.1112220955       -0.1384967130
 H          5.0081831478        2.3258801537       -0.2607918676
 H          2.9201459569       -2.1869445347        0.1510488161
 H          4.9292921209       -3.9940598660        0.2142924373
 H          7.1263938254       -5.1306258824        0.1768383852
 H          9.1937817628       -3.8437335618       -0.0864423889
 H          9.1465433563       -1.3885568728       -0.2901593756
 H          6.6298947910        1.9523759662       -2.0418301551
 H          8.2592353514        3.7850894273       -2.2837687845
 H         10.2029346667        3.9222817547       -0.7685879358
 H         10.4975208392        2.2327463165        1.0064483491
 H          8.8446533380        0.4273366472        1.2814019412
 H          0.7455108936        1.7325995261       -0.9899299592
 H         -1.6801026373        1.6369936326       -0.8738170801
 H         -6.5536408113        2.1025076151        0.7275989905
 H         -6.0805466590        0.9297162670        1.9446000882
 H         -7.7932246989        1.1777869453        1.5799204219
 H         -8.8414901003       -0.2300614531        0.1181449639
