  85
 
 C          1.4347618471        4.4477559854       -1.1669234952
 C          2.2690610029        3.9182619525        0.0085718380
 C          3.7300712991        4.3109406037       -0.2267252291
 C          1.7999266031        4.5776617190        1.3143016395
 C          2.0776921911        2.4149772966        0.1186367934
 C          3.1336031139        1.5060650178        0.0090296673
 C          2.9195679923        0.1261304405        0.0852699304
 C          1.6227824633       -0.3951115687        0.2454311127
 C          0.5842870059        0.5314245660        0.4380340827
 C          0.8021998188        1.9066264355        0.3386462762
 N         -0.7056221910        0.0485245113        0.6622807659
 C         -1.5894919341        0.7696011783        1.4424575555
 C         -1.1285469530        1.5923165691        2.4819581717
 C         -2.0166358875        2.3174937598        3.2423916001
 C         -3.3818247895        2.2335940478        2.9952313083
 C         -3.8486676878        1.3905911981        1.9989646449
 C         -2.9728664822        0.6456817004        1.2303256555
 C         -3.4512821728       -0.2433514906        0.1139767975
 C         -4.8650011841       -0.7275170366        0.3360775142
 C         -5.3423691202       -1.5221041799        1.3558190039
 C         -6.6927805687       -1.8460046389        1.3674657064
 C         -7.5432337330       -1.3780802128        0.3762496972
 C         -7.0681674775       -0.5772820645       -0.6493975572
 C         -5.7209649519       -0.2516067890       -0.6675919540
 C         -4.9432634151        0.5516771257       -1.5951717190
 C         -5.3166007358        1.2326724742       -2.7427003010
 C         -4.3482043664        1.9294044755       -3.4466406544
 C         -3.0301062571        1.9429493240       -3.0174883758
 C         -2.6479117371        1.2596941573       -1.8696606767
 C         -3.6089814111        0.5710320879       -1.1638023535
 C         -2.4725089844       -1.3718848829       -0.1132595815
 C         -2.9065813316       -2.5740692916       -0.6559588395
 C         -1.9842880027       -3.5687071988       -0.9546207500
 C         -0.6423272315       -3.3717539455       -0.7146029141
 C         -0.1471704949       -2.1883560897       -0.1452910562
 C         -1.1107380658       -1.1735399295        0.1269361283
 B          1.3356300461       -1.8759438909        0.1127232759
 C          2.5857456942       -2.7650057630        0.1112432220
 C          2.5815694188       -4.1643221684        0.2255140653
 C          3.7385835606       -4.9133073984        0.2633464523
 C          4.9737582613       -4.2805068141        0.2035146965
 C          5.0311961509       -2.9010614988        0.1143076240
 C          3.8632613056       -2.1366783954        0.0600625742
 N          3.9809760886       -0.7527090536       -0.0234095405
 C          5.2818701330       -0.2005868611       -0.1829048254
 C          5.8971010188       -0.2380291619       -1.4293850379
 C          7.1543649330        0.3137024156       -1.5932624888
 C          7.8017367876        0.9050121783       -0.5202000897
 C          7.1890585436        0.9420097173        0.7221152023
 C          5.9323098939        0.3915282343        0.8945119206
 H          0.3746333412        4.2617178689       -1.0171900197
 H          1.7396352490        3.9629057205       -2.0921299209
 H          1.5782671372        5.5207233916       -1.2756768243
 H          3.8077162023        5.3944595431       -0.2898110086
 H          4.3637385241        3.9765663063        0.5918276073
 H          4.1036783265        3.8931129792       -1.1589716379
 H          1.9392803549        5.6553875088        1.2619772195
 H          2.3757389365        4.1965698001        2.1554855117
 H          0.7479928849        4.3801419401        1.5030763853
 H          4.1298419339        1.8707178586       -0.1714757277
 H         -0.0450381376        2.5737886527        0.3949922215
 H         -0.0706904078        1.6288444839        2.6950967457
 H         -1.6487251297        2.9460781857        4.0396224512
 H         -4.0778421731        2.8106771209        3.5838328729
 H         -4.9098335373        1.3138287327        1.8142533029
 H         -4.6791457876       -1.8867279226        2.1268310151
 H         -7.0851988567       -2.4698787747        2.1569925003
 H         -8.5902820209       -1.6430369758        0.4055990759
 H         -7.7340607789       -0.2152694100       -1.4186716681
 H         -6.3417777639        1.2202543345       -3.0819538155
 H         -4.6218082200        2.4673232388       -4.3428082472
 H         -2.2889775132        2.4894919240       -3.5821870946
 H         -1.6157364529        1.2706362884       -1.5519014175
 H         -3.9553531320       -2.7231254356       -0.8603724812
 H         -2.3284597056       -4.4987793157       -1.3843000802
 H          0.0593355662       -4.1442599299       -0.9867018818
 H          1.6304553214       -4.6658410240        0.3135791708
 H          3.6880207573       -5.9894045185        0.3509578238
 H          5.8881581261       -4.8533786510        0.2390333297
 H          5.9981336064       -2.4206661258        0.0924919579
 H          5.3829136237       -0.7024525662       -2.2576957114
 H          7.6292082140        0.2845855931       -2.5625611120
 H          8.7828344501        1.3355542597       -0.6515917586
 H          7.6930335960        1.3991670577        1.5605983078
 H          5.4456750798        0.4134963251        1.8585632640
