  78
 
 C          2.2850122747        3.6336090305        0.8471021884
 C          1.0602474042        2.7569222241        0.5844591937
 C          0.3028458394        2.5787560654        1.9174823251
 C          0.1043683849        3.3790646773       -0.4164803247
 C          0.1343755333        4.7107563628       -0.8017091536
 C         -0.8134341624        5.2218873787       -1.6720153842
 C         -1.8033814340        4.4016048339       -2.1824310246
 C         -1.8389480018        3.0658951913       -1.8301522055
 C         -0.8978353221        2.5605290447       -0.9438209417
 N         -0.8804499237        1.1931840924       -0.6095618972
 C         -2.0085288511        0.5092345564       -0.3022291414
 N         -3.1590331524        1.1854440002       -0.2575160929
 C         -4.2281160929        0.4797515641        0.0804492752
 C         -5.5040674146        1.1928523860        0.1679366174
 C         -6.6708046901        0.5052138720        0.4926717052
 C         -7.8717631058        1.1827831744        0.5769954410
 C         -7.9181395708        2.5475649557        0.3390858535
 C         -6.7589495986        3.2359619387        0.0161017142
 C         -5.5546132727        2.5648837189       -0.0699642860
 N         -4.2195889009       -0.8264449700        0.3400552932
 C         -3.0271666218       -1.4146127987        0.2810543245
 C         -2.9439399683       -2.8543473718        0.5361704333
 C         -1.7047651266       -3.4924417835        0.5321484217
 C         -1.6290012733       -4.8553728437        0.7436299914
 C         -2.7837975478       -5.5903725558        0.9633082295
 C         -4.0176959384       -4.9586581874        0.9738160681
 C         -4.1009240214       -3.5960599312        0.7609501777
 N         -1.8980744419       -0.7884992267       -0.0134843908
 C          0.4004459915        0.6061003125       -0.5050057762
 C          0.6308763211       -0.6654257051       -0.9994615307
 C          1.8947778553       -1.2130516970       -0.8506860306
 C          2.4677217044       -2.4822209998       -1.1971749157
 C          1.9498147100       -3.6404737222       -1.7613073060
 C          2.7874494777       -4.7253676901       -1.9256326644
 C          4.1199132817       -4.6692554393       -1.5222346224
 C          4.6559764484       -3.5293054328       -0.9539787398
 C          3.8253818629       -2.4279686801       -0.8050063735
 N          4.0893549620       -1.1946468163       -0.2409252861
 C          5.3204284275       -0.7765257452        0.2818818377
 C          6.4824352584       -0.9056920847       -0.4734190496
 C          7.6948776373       -0.4955779932        0.0492190482
 C          7.7589544533        0.0549619009        1.3185022097
 C          6.6030756934        0.1885905494        2.0697521257
 C          5.3878532167       -0.2291758756        1.5602323887
 C          2.9241682104       -0.4534965550       -0.2552326630
 C          2.7033218919        0.8483811802        0.1687848703
 C          1.4287118190        1.3785218186        0.0646038396
 H          2.9232183711        3.1754772524        1.5983437138
 H          1.9766401117        4.6002834974        1.2367377671
 H          2.8600809541        3.7839779995       -0.0638357068
 H         -0.5840438737        1.9640160130        1.7892992106
 H          0.9487611056        2.0998636695        2.6506566593
 H         -0.0063149777        3.5489812123        2.3009640373
 H          0.8966383082        5.3713620753       -0.4217264677
 H         -0.7752579048        6.2644367042       -1.9508816988
 H         -2.5406016713        4.7964307041       -2.8652902761
 H         -2.5934175543        2.4120951749       -2.2359599495
 H         -6.6133994357       -0.5563090611        0.6751765072
 H         -8.7762237395        0.6484755038        0.8293691844
 H         -8.8584867780        3.0754398218        0.4063969796
 H         -6.7971861626        4.2999536177       -0.1675751977
 H         -4.6408815995        3.0833575481       -0.3168689214
 H         -0.8153388230       -2.9051419322        0.3643034336
 H         -0.6670917529       -5.3474733592        0.7362946892
 H         -2.7223272146       -6.6566366762        1.1269112421
 H         -4.9160757463       -5.5334055377        1.1465487370
 H         -5.0519539840       -3.0870553369        0.7606437913
 H         -0.1578278382       -1.2181081552       -1.4797352819
 H          0.9120184880       -3.6879335339       -2.0549320620
 H          2.4069626514       -5.6361965288       -2.3635517863
 H          4.7473447945       -5.5390492674       -1.6505109199
 H          5.6838375010       -3.5049253045       -0.6245649718
 H          6.4252329226       -1.3146201821       -1.4710874287
 H          8.5932651921       -0.5987616368       -0.5411963261
 H          8.7068594990        0.3780297283        1.7214648354
 H          6.6492925608        0.6119439956        3.0623375439
 H          4.4884871079       -0.1509532642        2.1526771087
 H          3.5184182623        1.4249865341        0.5726297818
