  92
 
 C          1.8595573359       -4.8311221682       -2.2527526419
 C          0.4091060368       -4.6247240279       -1.8101348272
 C         -0.5758496661       -5.2431127900       -2.8031085604
 C          0.2212277973       -5.1882419702       -0.4216344660
 C          0.2461361062       -6.5594993580       -0.2078637947
 C          0.0796608140       -7.0806360309        1.0603862134
 C         -0.1042883170       -6.2373586924        2.1387161493
 C         -0.1142093098       -4.8595038917        1.9704029126
 C         -0.3223335979       -3.9431521664        3.1522633999
 C         -1.7693309409       -4.0584597518        3.6371596968
 C          0.6730775688       -4.2414473352        4.2740672292
 C          0.0452396571       -4.3548405377        0.6814997294
 N          0.0287648263       -2.9344641007        0.4810397928
 C         -1.2195756708       -2.3394707997        0.3619102790
 O         -2.2401255746       -3.0148331220        0.4363328861
 C         -1.2147073089       -0.9076450467        0.1333938649
 C         -2.4364546536       -0.2277515943        0.0022871418
 C         -2.4430237209        1.1330079112       -0.2182258583
 N         -3.6736597219        1.8248919733       -0.3624027549
 C         -4.5184186279        1.5561218026       -1.4278578604
 C         -4.2092125338        0.6110271065       -2.4049852853
 C         -5.0768689289        0.3747300435       -3.4541695064
 C         -6.2658252505        1.0788804518       -3.5575171087
 C         -6.5803415962        2.0380077749       -2.6105686741
 C         -5.7158486136        2.2826098704       -1.5561877452
 O         -6.0719944980        3.2610781282       -0.6712733874
 C         -5.2421061421        3.4947752724        0.3869703186
 C         -5.6285137365        4.4655846110        1.2963100241
 C         -4.8400537949        4.7338940299        2.4022260133
 C         -3.6728747208        4.0158648387        2.6055916231
 C         -3.2789675821        3.0457238476        1.7033307764
 C         -4.0436506685        2.7813207179        0.5675358332
 C         -1.2500710469        1.8569089486       -0.3231928357
 C         -0.0134987960        1.2025003516       -0.1954113973
 C          1.2092793810        1.8891694807       -0.2791921072
 C          2.4162777737        1.1971535390       -0.1290027650
 N          3.6330293738        1.9198981043       -0.2324330596
 C          4.5247014174        1.6641074771       -1.2624084083
 C          4.2779911957        0.7028608089       -2.2416299209
 C          5.1914987661        0.4799634194       -3.2541687277
 C          6.3650684955        1.2139220359       -3.3186170047
 C          6.6176896294        2.1893784335       -2.3698522716
 C          5.7070124913        2.4205604766       -1.3519304063
 O          6.0033661400        3.4159103759       -0.4638434648
 C          5.1288990460        3.6354565551        0.5609913976
 C          5.4560915317        4.6224688248        1.4761083151
 C          4.6206096720        4.8777699516        2.5501030482
 C          3.4658604158        4.1306463741        2.7162389128
 C          3.1308861483        3.1442173324        1.8078668216
 C          3.9434584805        2.8921737334        0.7029215845
 C          2.4370815268       -0.1626613462        0.0964967106
 C          1.2297275751       -0.8743934159        0.1829556794
 C          0.0005787205       -0.2027485285        0.0400537411
 C          1.2640827928       -2.3047050561        0.4174851313
 O          2.2985115616       -2.9504714934        0.5443865053
 H          2.5307469710       -4.3721108369       -1.5301817319
 H          2.0271641593       -4.3780415038       -3.2283493878
 H          2.0940121331       -5.8911399632       -2.3167815436
 H          0.2153643373       -3.5472616477       -1.7840282360
 H         -0.4884068128       -4.7507554330       -3.7700622262
 H         -0.3823942507       -6.3034024492       -2.9433334580
 H         -1.5945442145       -5.1214733494       -2.4413972435
 H          0.3948548653       -7.2289231955       -1.0415719428
 H          0.0933058311       -8.1509842866        1.2093127275
 H         -0.2392430494       -6.6572852797        3.1239501545
 H         -0.1559905968       -2.9093896917        2.8319650383
 H         -1.9772664200       -5.0665098009        3.9884571969
 H         -2.4479938318       -3.8309978621        2.8180367948
 H         -1.9535575959       -3.3606886081        4.4520481933
 H          0.5067081697       -5.2282627853        4.6982178360
 H          1.6902219110       -4.1954548888        3.8911208123
 H          0.5674572404       -3.5068257223        5.0703318256
 H         -3.3519764460       -0.7913267631        0.0896453164
 H         -3.2840157610        0.0626962428       -2.3341644437
 H         -4.8193856109       -0.3658146906       -4.1948693187
 H         -6.9443169528        0.8895191070       -4.3738913759
 H         -7.4904934067        2.6128654851       -2.6693154618
 H         -6.5515802317        4.9937091050        1.1196778380
 H         -5.1452948651        5.4916410357        3.1060707047
 H         -3.0648599369        4.2059186822        3.4762164668
 H         -2.3779022728        2.4792313182        1.8741225984
 H         -1.2794590356        2.9180934411       -0.5206717826
 H          1.2177894757        2.9504475380       -0.4781593273
 H          3.3651045051        0.1312984634       -2.2015028974
 H          4.9821107571       -0.2736642570       -3.9968272189
 H          7.0794085084        1.0350232399       -4.1062606372
 H          7.5142247500        2.7874199271       -2.3992006501
 H          6.3710742323        5.1733138960        1.3293309156
 H          4.8798262820        5.6482060440        3.2586109599
 H          2.8214776677        4.3106042251        3.5625103613
 H          2.2393486481        2.5552363113        1.9502100783
 H          3.3630473251       -0.7015956943        0.2212826576
