73

C     -2.694849    5.597582   -1.098318
C     -3.196488    4.497700   -2.021661
C     -3.691810    3.254323   -1.276891
C     -2.573267    2.509588   -0.538956
C     -3.006262    1.189110    0.141245
C     -4.122697    1.368671    1.192442
C     -3.783859    2.373511    2.285772
C     -3.401366    0.139770   -0.922936
N     -3.440414   -1.228837   -0.418172
C     -4.590133   -1.933184   -0.108997
C     -5.948542   -1.567600   -0.161379
C     -6.909448   -2.511433    0.229912
C     -8.300397   -2.163806    0.184892
N     -9.424943   -1.878321    0.146341
C     -6.524889   -3.780569    0.661553
C     -5.171774   -4.133855    0.710884
C     -4.187816   -3.200078    0.320286
C     -2.761233   -3.250227    0.250004
C     -1.807582   -4.248336    0.544787
C     -0.445537   -3.985252    0.356398
C     -0.024483   -2.746823   -0.121343
C      1.370938   -2.494218   -0.310425
C      2.541447   -2.275297   -0.470974
C      3.939450   -2.014583   -0.670743
C      4.625824   -2.833112   -1.573758
C      5.982892   -2.632192   -1.815841
C      6.677414   -1.609286   -1.160203
C      8.041890   -1.403476   -1.401432
C      8.737112   -0.384080   -0.748883
C      8.085164    0.454967    0.162362
C      8.775185    1.481406    0.824278
C      8.116703    2.310140    1.730971
C      6.759483    2.123555    1.987081
C      6.043538    1.105759    1.339496
C      4.682482    0.908050    1.587919
C      3.980756   -0.109587    0.936806
C      4.611836   -0.970212    0.011881
C      5.993600   -0.773493   -0.242663
C      6.706512    0.261987    0.419228
C     -0.951915   -1.741398   -0.419329
C     -2.318484   -2.014440   -0.223230
H     -2.451003    6.492818   -1.679564
H     -3.456791    5.868916   -0.360520
H     -1.788887    5.293579   -0.565976
H     -2.405306    4.221088   -2.728117
H     -4.026850    4.896839   -2.616180
H     -4.479806    3.549562   -0.575233
H     -4.156016    2.587049   -2.011349
H     -2.129644    3.165214    0.218480
H     -1.765062    2.288186   -1.248266
H     -2.120952    0.817559    0.675383
H     -5.061443    1.663759    0.709346
H     -4.314315    0.406623    1.681535
H     -2.827690    2.131093    2.760393
H     -3.730035    3.393657    1.894261
H     -4.558797    2.359712    3.059024
H     -4.376689    0.368899   -1.363783
H     -2.683441    0.139542   -1.752499
H     -6.252971   -0.578286   -0.492083
H     -7.272835   -4.511177    0.964328
H     -4.880839   -5.125456    1.047408
H     -2.125387   -5.218828    0.915236
H      0.281236   -4.761065    0.586726
H      4.105000   -3.633786   -2.095099
H      6.492652   -3.283487   -2.522837
H      8.580161   -2.037842   -2.102886
H      9.796096   -0.252424   -0.959777
H      9.834905    1.642321    0.638127
H      8.661675    3.101655    2.238661
H      6.263114    2.779836    2.698553
H      4.150922    1.543434    2.293008
H      2.922829   -0.224502    1.165347
H     -0.617870   -0.776911   -0.790053
