  67
 
 O         -0.0354137185        4.5973715326       -1.2341036267
 S          0.0000487884        3.8433208989        0.0000758510
 O          0.0355272712        4.5973066171        1.2342943072
 C          1.3960262202        2.7181092888       -0.0344485755
 C          2.1143699038        2.4734091632        1.1208739553
 C          3.1364066611        1.5422090200        1.1024280625
 C          3.4324614126        0.8565168077       -0.0760032226
 N          4.4601530925       -0.1051303527       -0.0959779938
 C          5.7846023445        0.2558518704        0.1793111811
 C          6.1607544882        1.5694071483        0.4325881055
 C          7.4830951723        1.8923121681        0.6983503343
 C          8.4544785151        0.9113768796        0.7034254039
 C          8.1014351452       -0.3993900478        0.4183179754
 C          6.7842523449       -0.7255701970        0.1506928438
 O          6.5214581438       -2.0396958437       -0.1563296911
 C          5.2164036745       -2.3786460702       -0.4246014557
 C          4.9640239304       -3.7075470351       -0.7140287311
 C          3.6687090795       -4.1364756154       -0.9634110872
 C          2.6293314333       -3.2301576924       -0.8992549424
 C          2.8780794027       -1.8965769347       -0.6107607603
 C          4.1738059100       -1.4433028331       -0.3936731881
 C          2.7031142278        1.1218093927       -1.2364733305
 C          1.6800388590        2.0501851537       -1.2122321471
 C         -1.3959523984        2.7181371431        0.0345428889
 C         -1.6800142116        2.0502021644        1.2123083774
 C         -2.7031098939        1.1218474469        1.2365062697
 C         -3.4324283655        0.8565870561        0.0760106466
 N         -4.4601455364       -0.1050338116        0.0959371489
 C         -5.7845794464        0.2559970096       -0.1793636335
 C         -6.1606865948        1.5695725951       -0.4326018952
 C         -7.4830157572        1.8925304296       -0.6983563261
 C         -8.4544315906        0.9116278347       -0.7034653148
 C         -8.1014317877       -0.3991615656       -0.4184082016
 C         -6.7842607601       -0.7253943149       -0.1507890943
 O         -6.5215111280       -2.0395381249        0.1561933446
 C         -5.2164783980       -2.3785274584        0.4245220513
 C         -4.9641514944       -3.7074363074        0.7139590179
 C         -3.6688606275       -4.1364041826        0.9633983287
 C         -2.6294525253       -3.2301181818        0.8992865166
 C         -2.8781475688       -1.8965293071        0.6107837422
 C         -4.1738510121       -1.4432154605        0.3936411884
 C         -3.1363242462        1.5422904020       -1.1024019043
 C         -2.1142672053        2.4734689778       -1.1208045661
 H          1.8630491810        3.0188930348        2.0168686980
 H          3.7014949056        1.3336570789        1.9981708648
 H          5.4174902874        2.3506298915        0.4141996366
 H          7.7437752065        2.9205017530        0.8970015541
 H          9.4837270241        1.1554498858        0.9140815641
 H          8.8375475632       -1.1874632456        0.3921107763
 H          5.7976263291       -4.3918318248       -0.7347694562
 H          3.4829143737       -5.1738267355       -1.1928995973
 H          1.6134047854       -3.5511293931       -1.0705761263
 H          2.0536887392       -1.2043434942       -0.5476768290
 H          2.9461080438        0.5991615637       -2.1491339368
 H          1.1108709534        2.2808351181       -2.0984864097
 H         -1.1108658559        2.2808274130        2.0985817973
 H         -2.9461426534        0.5991932517        2.1491529959
 H         -5.4173973625        2.3507708794       -0.4141773993
 H         -7.7436577749        2.9207322517       -0.8969948184
 H         -9.4836653074        1.1557361660       -0.9141533045
 H         -8.8375672737       -1.1872150348       -0.3922509571
 H         -5.7977751374       -4.3916964617        0.7346591098
 H         -3.4831071421       -5.1737615433        1.1928920634
 H         -1.6135430708       -3.5511209333        1.0706516051
 H         -2.0537330339       -1.2043211285        0.5477349340
 H         -3.7013926497        1.3337647256       -1.9981633079
 H         -1.8629118852        3.0189631177       -2.0167833096
