  85
 
 C         -8.4609561361        0.1336511690       -1.2532442043
 C         -7.5877785389        0.0017316962       -0.0002034934
 C         -8.4611336202       -0.1297827791        1.2527543346
 C         -6.6539090950       -1.2037966847       -0.1272452960
 O         -7.0025586081       -2.3565904556       -0.2488847081
 C         -5.2744060248       -0.6958296280       -0.0746683383
 C         -4.0830134498       -1.3946034399       -0.1456098770
 C         -2.8754650765       -0.7011348866       -0.0676179821
 C         -1.6162276211       -1.4637136612       -0.1133037617
 C         -0.6130323836       -1.2554920670        0.8322587804
 C          0.5756397731       -1.9527847649        0.7587201153
 C          0.7850988425       -2.8727433766       -0.2644053201
 N          2.0207895668       -3.5552363795       -0.3599453550
 C          3.1753369308       -2.8646123862       -0.7308476965
 C          3.1584142210       -1.5125569679       -1.0502684122
 C          4.3219800355       -0.8571789075       -1.4242236203
 C          5.5179620472       -1.5421907728       -1.4901213126
 C          5.5482400185       -2.8977767082       -1.1928396197
 C          4.3907807340       -3.5562447737       -0.8227352445
 O          4.4932306145       -4.9049811846       -0.5646235706
 C          3.3353731027       -5.5767203100       -0.2414324451
 C          3.4411478389       -6.9356187780       -0.0131633145
 C          2.3212499161       -7.6756573834        0.3411145311
 C          1.1020489084       -7.0428298774        0.4749676060
 C          0.9904209706       -5.6795600212        0.2452664977
 C          2.0974016343       -4.9287801036       -0.1303971409
 C         -0.2229442361       -3.1093113102       -1.1928471307
 C         -1.4144978750       -2.4151415140       -1.1112257385
 C         -2.8751526052        0.7024422142        0.0674910306
 C         -1.6155800526        1.4644571045        0.1132759149
 C         -1.4135041993        2.4157778490        1.1112291885
 C         -0.2216539792        3.1094272704        1.1929462051
 C          0.7863434030        2.8724323928        0.2645651637
 N          2.0223368892        3.5543617429        0.3601794465
 C          2.0996339732        4.9278505006        0.1305382474
 C          0.9929814870        5.6792039821       -0.2449426857
 C          1.1052883455        7.0424082027       -0.4746996518
 C          2.3248488428        7.6745937698       -0.3410882570
 C          3.4444214110        6.9339733287        0.0130037611
 C          3.3379701159        5.5751359194        0.2413240436
 O          4.4955361879        4.9027856162        0.5642943242
 C          4.3923824053        3.5541549713        0.8226802053
 C          5.5495176336        2.8951223949        1.1927939382
 C          5.5185329910        1.5395985217        1.4902880792
 C          4.3221781593        0.8552182938        1.4245955737
 C          3.1589315168        1.5111676996        1.0506518848
 C          3.1765571715        2.8631656806        0.7310256607
 C          0.5765568278        1.9525758034       -0.7585853710
 C         -0.6124130417        1.2558041074       -0.8322203187
 C         -4.0823879067        1.3964630971        0.1454013128
 C         -5.2740935368        0.6982328129        0.0743910135
 C         -6.6533653770        1.2068294087        0.1269180151
 O         -7.0014929100        2.3597789177        0.2485820610
 H         -9.0907512386       -0.7471323287       -1.3546337457
 H         -9.0885120319        1.0179635865       -1.1704856333
 H         -7.8418104039        0.2258302824       -2.1442531070
 H         -9.0905274880        0.7512938624        1.3540850562
 H         -9.0890921243       -1.0138039402        1.1699387953
 H         -7.8421114389       -0.2222486240        2.1438196111
 H         -4.0929335097       -2.4700932392       -0.2395322721
 H         -0.7725631598       -0.5549594738        1.6373590307
 H          1.3516536230       -1.7884295786        1.4911935952
 H          2.2279283295       -0.9694536351       -1.0058013359
 H          4.2852949041        0.1949651198       -1.6597092040
 H          6.4267539067       -1.0359582782       -1.7748863352
 H          6.4645386324       -3.4647344790       -1.2465337394
 H          4.4112423329       -7.3971369551       -0.1129667894
 H          2.4142307947       -8.7359297402        0.5163404430
 H          0.2253171102       -7.6027961121        0.7625837390
 H          0.0352725886       -5.1928228785        0.3649813132
 H         -0.0634048126       -3.8302754456       -1.9808755341
 H         -2.1837945150       -2.5852106730       -1.8497866300
 H         -2.1827810750        2.5861671582        1.8497374503
 H         -0.0618533527        3.8303021498        1.9810029743
 H          0.0375558586        5.1929673845       -0.3644763454
 H          0.2288007565        7.6028306387       -0.7621719114
 H          2.4183544882        8.7348105534       -0.5163685945
 H          4.4147813551        7.3949787809        0.1126038716
 H          6.4661289162        3.4615917349        1.2463077175
 H          6.4270748594        1.0329225108        1.7750627391
 H          4.2849465586       -0.1968685498        1.6602504845
 H          2.2281454248        0.9685643694        1.0063547310
 H          1.3525598068        1.7878910164       -1.4909965672
 H         -0.7721935675        0.5553462628       -1.6373358497
 H         -4.0918217709        2.4719571740        0.2393239738
