107

C     -4.080582    5.623883    0.966234
C     -2.922861    5.482265   -0.045846
C     -1.577035    5.626428    0.697629
C     -3.029694    6.667960   -1.031012
C     -2.993429    4.100381   -0.722279
C     -3.140324    3.945236   -2.119837
C     -3.203396    2.682246   -2.726333
C     -3.119040    1.553463   -1.932220
C     -2.971877    1.677432   -0.538875
C     -2.910388    2.933078    0.064425
C     -2.896851    0.275419    0.133563
C     -4.103461    0.151048    1.110926
C     -5.350044   -0.359291    0.699040
C     -6.431668   -0.432654    1.581925
C     -6.299115    0.018014    2.891486
C     -5.088311    0.552978    3.317829
C     -4.007075    0.627490    2.436145
C     -1.515042   -0.025787    0.787054
C     -0.352817    0.672782    0.431443
C      0.898689    0.369054    0.984412
C      1.002974   -0.697499    1.896964
C     -0.130623   -1.405533    2.292236
C     -1.380200   -1.081343    1.715759
C      0.269894   -2.364676    3.266708
C     -0.436730   -3.338307    4.007274
C      0.249225   -4.181572    4.884039
C      1.626627   -4.077105    5.020764
C      2.347701   -3.119602    4.300992
C      1.650017   -2.241787    3.444214
N      2.091289   -1.218964    2.600396
C      3.444494   -0.783156    2.471949
C      4.230591   -0.590192    3.614374
C      5.551119   -0.156745    3.488138
C      6.094175    0.083853    2.225227
C      5.314589   -0.111149    1.078636
N      5.872908    0.124309   -0.214045
C      6.654801    1.227730   -0.565705
C      7.039206    2.375454    0.160107
C      7.824329    3.344174   -0.472082
C      8.205941    3.195688   -1.798274
C      7.794359    2.078143   -2.527896
C      6.998364    1.086369   -1.912317
C      6.406529   -0.119390   -2.389378
C      6.410201   -0.762281   -3.647500
C      5.754084   -1.984579   -3.809196
C      5.109471   -2.579711   -2.733709
C      5.090199   -1.962716   -1.479488
C      5.719468   -0.708749   -1.325267
C      3.987224   -0.544193    1.201839
C     -3.027033   -0.628142   -1.128055
C     -3.024901   -2.020653   -1.201173
C     -3.150591   -2.663155   -2.450028
C     -3.141574   -4.201718   -2.519764
C     -3.298304   -4.764387   -3.950348
C     -1.804639   -4.736582   -1.961907
C     -4.306232   -4.766513   -1.677558
C     -3.276113   -1.850940   -3.600492
C     -3.276954   -0.450347   -3.526606
C     -3.151089    0.154797   -2.289750
H     -4.018255    4.886635    1.774086
H     -4.075721    6.614414    1.436068
H     -5.051954    5.492144    0.475126
H     -1.485285    6.615937    1.160574
H     -1.463686    4.887163    1.498081
H     -0.731792    5.499672    0.010843
H     -2.214975    6.657906   -1.764414
H     -2.974540    7.627186   -0.502212
H     -3.980789    6.655483   -1.575985
H     -3.210319    4.809395   -2.775369
H     -3.316222    2.604609   -3.802702
H     -2.793437    2.997839    1.142029
H     -5.507237   -0.697796   -0.322987
H     -7.381611   -0.834533    1.238868
H     -7.142263   -0.036667    3.574559
H     -4.983517    0.919489    4.335623
H     -3.078529    1.065799    2.798348
H     -0.388908    1.477389   -0.301646
H      1.760218    0.965453    0.699099
H     -2.248798   -1.665898    2.010692
H     -1.512276   -3.438958    3.890422
H     -0.298099   -4.931789    5.449014
H      2.154538   -4.753929    5.688706
H      3.428049   -3.081206    4.399819
H      3.820793   -0.731319    4.611967
H      6.159420   -0.006500    4.377019
H      7.138076    0.381014    2.154015
H      6.725390    2.531874    1.187448
H      8.130608    4.229188    0.081018
H      8.814157    3.958403   -2.277705
H      8.078925    1.979219   -3.571628
H      6.929632   -0.312496   -4.488947
H      5.761554   -2.476786   -4.778244
H      4.618636   -3.541628   -2.863796
H      4.606283   -2.465541   -0.647690
H      3.379509   -0.695096    0.312855
H     -2.926315   -2.598867   -0.287256
H     -3.289143   -5.860992   -3.946660
H     -4.245780   -4.452330   -4.404973
H     -2.481046   -4.438658   -4.604396
H     -1.756693   -5.829708   -2.030528
H     -1.660550   -4.475378   -0.907664
H     -0.953430   -4.329440   -2.520489
H     -4.213411   -4.511254   -0.616235
H     -4.345512   -5.860283   -1.740749
H     -5.270025   -4.377141   -2.026513
H     -3.373559   -2.291080   -4.589554
H     -3.372586    0.138809   -4.432720
