94
 xtb: 6.7.1 (edcfbbe)
C           -1.85735796412388       -5.31122709954425        2.56839413207797
C           -2.36518767843864       -4.04716366504268        1.94634372762037
C           -1.51927269020514       -3.19434010308969        1.24356355516426
C           -1.99171653521594       -2.03214273725837        0.67331624150800
C           -3.34128884623555       -1.68062560800263        0.79609745538497
N           -3.81055212265619       -0.49429803283367        0.23396936414193
C           -5.09165702040293       -0.41862982196443       -0.30832965853573
C           -5.66888772412811       -1.51745033672743       -0.95532131146927
C           -6.93112728157273       -1.42083596887124       -1.49543944944570
C           -7.66218821813532       -0.23457761476245       -1.42122938806856
C           -9.03431204607410       -0.15707232313784       -2.01637052770360
C           -7.08023060936964        0.85672026523576       -0.78468003446449
C           -5.81844017496426        0.77471598664310       -0.23554920865134
C           -2.97229621726972        0.61185391034834        0.19164985214319
C           -2.12164722580469        0.92103839124367        1.28235681916288
C           -1.26918802147344        1.98187638195100        1.22017418669079
C           -1.16504178206691        2.79632354539580        0.06539084554601
C           -0.04373888542700        3.80529016016421       -0.06380688484876
C            1.06035696855398        2.77630856506251       -0.14383844395895
C            1.85467764708325        2.42500154136708        0.97946305983424
C            2.71865033172380        1.36807887734163        0.95164227711516
C            2.82295230597013        0.54923301662091       -0.19090369786262
N            3.64124141163096       -0.57124133800758       -0.20043182842942
C            4.88354815891618       -0.53188419428622        0.42917895677732
C            5.63968865192069        0.64574914724877        0.42448131551793
C            6.86237977493997        0.69066386049118        1.05745235795678
C            7.37685030401925       -0.42429494671265        1.71438706472680
C            8.69508755089513       -0.36670955196784        2.42252257248523
C            6.61708445205483       -1.59317447684524        1.72070320821665
C            5.39195068122107       -1.65311176780095        1.09490870909426
C            3.18872780755298       -1.73929247238976       -0.81215168694604
C            1.82832538349645       -2.06972028881758       -0.77983868157056
C            1.37458864103634       -3.21420777769399       -1.39882647389757
C            2.24933330488255       -4.06932169542353       -2.06259072891211
C            1.76171322172492       -5.31387457207973       -2.73766845573679
C            3.60383721730929       -3.73397329010384       -2.09400304695592
C            4.07129538290510       -2.59065044859888       -1.48672449176234
C            2.03844933577801        0.88749166165827       -1.32352038301921
C            1.20549413075506        1.96536900032117       -1.29560134502005
C           -0.13097188328595        4.68905601298513       -1.31707902360818
C            1.07769729717250        5.61619829564628       -1.41514815676873
C            1.14872294632944        6.54174717773137       -0.20776531298481
C            1.21284706964396        5.70801737942034        1.06516102109894
C            0.02160183297062        4.75680813760589        1.14188122950120
C           -2.03853378140317        2.48732954731770       -1.00731425420509
C           -2.92348292533919        1.44864689530307       -0.94202364524084
C           -4.19407622227256       -2.52983279380443        1.51027424336682
C           -3.70889366735925       -3.69126942431150        2.06779959713290
H           -0.82818351415955       -5.50272834033050        2.27426549781533
H           -1.89565746788432       -5.24016052141869        3.65680568597152
H           -2.47162145140186       -6.15917296412976        2.27154407019985
H           -0.47454745616907       -3.45019577222358        1.13546934865543
H           -1.33113254664460       -1.38792769297310        0.11227128564602
H           -5.10982681708761       -2.43828637650263       -1.03697291400759
H           -7.36398241412128       -2.27772510800446       -1.99253505683066
H           -9.65943354299711       -0.97012021359888       -1.66297903516248
H           -8.97333360617478       -0.22914475073545       -3.10944995787622
H           -9.51018753134791        0.79415230517379       -1.76765516468032
H           -7.63025861248618        1.78348316965158       -0.70819096750337
H           -5.38547038270983        1.62446646964058        0.27062819042038
H           -2.18096182411648        0.31554105907476        2.17495926956441
H           -0.64001535275588        2.18798220746149        2.07147512334076
H            1.78747589576835        3.00210760846561        1.88721214817869
H            3.30889511456134        1.12534498292740        1.82381946467597
H            5.26018514732676        1.51317814811794       -0.09539100915506
H            7.43550536074670        1.60728796780207        1.03715507373093
H            9.28740105806444       -1.26355066711873        2.19365671572644
H            8.55016465774957       -0.33393549234464        3.50058881567480
H            9.26357305902365        0.50990649141118        2.11798805910865
H            6.99450912131914       -2.46556322991059        2.23448241331695
H            4.80905349040733       -2.56168534539131        1.12371298783984
H            1.14431763632038       -1.42473658546917       -0.24835905240196
H            0.32197666940827       -3.45556324794326       -1.35877827847475
H            0.71793408415324       -5.50109371807324       -2.49990736160337
H            2.35233396247441       -6.17591412099699       -2.42554261910037
H            1.85895490720664       -5.22141948393932       -3.81868191043977
H            4.29695679141617       -4.38202306200384       -2.61130588577021
H            5.12031175722140       -2.33572886722466       -1.53451712009717
H            2.13274095820675        0.28868038367554       -2.21810965882242
H            0.62501315370556        2.18753030271882       -2.17822376339665
H           -1.04532966660915        5.28575861805276       -1.26587207855905
H           -0.17571824001720        4.08630162235265       -2.22406021470727
H            1.01221984236326        6.20281987721695       -2.33584576031672
H            1.98596137165436        5.01108720946573       -1.46549580772716
H            2.02496445800743        7.18907774419048       -0.28068302035011
H            0.26090719038221        7.17975815192104       -0.18663886513152
H            1.21514815314338        6.36035499886133        1.94088717100126
H            2.14183050176144        5.13614428529862        1.06562900647620
H           -0.90317510878331        5.34161757929646        1.14520181375917
H            0.05039977967350        4.20526886737585        2.07914852466701
H           -2.02478406089417        3.08850850082726       -1.90224697920246
H           -3.57719471115416        1.23585483150701       -1.77685403688648
H           -5.23309112350406       -2.25976906956620        1.62974321823917
H           -4.37820877647333       -4.33696800711556        2.61848541253338
