  73
 
 C         -7.0348250188        2.9897342487        1.3122732682
 C         -5.6923030179        3.2717933409        1.5134043149
 C         -4.7099540835        2.3751272164        1.1140698014
 C         -5.0999152397        1.1990085402        0.5133905964
 C         -6.4560629948        0.9087796818        0.3077975259
 C         -7.4311515396        1.8070278519        0.7082664883
 C         -6.5576106539       -0.3901768286       -0.3403033436
 C         -7.6595572186       -1.1208998609       -0.7523238365
 C         -7.4516414901       -2.3522655905       -1.3530987926
 C         -6.1697722470       -2.8462810699       -1.5402089974
 C         -5.0609979669       -2.1183154296       -1.1293076626
 C         -5.2643013734       -0.8947777292       -0.5316860409
 C         -4.2219043049        0.0756888515       -0.0026987557
 C         -3.3382750088        0.5485851622       -1.1290967114
 C         -3.9118389436        1.2450128243       -2.1820697690
 C         -3.1558773903        1.6655146116       -3.2603330128
 C         -1.8013192118        1.3752711115       -3.2939440485
 C         -1.2124246101        0.6838049138       -2.2566924659
 C         -1.9673840675        0.2680812978       -1.1545242322
 N         -1.3651946014       -0.4159693633       -0.1140987991
 C          0.0192300292       -0.7374891371       -0.2034439277
 C          0.4009820931       -2.0154888261       -0.5953611475
 C          1.7411196988       -2.3422229100       -0.6857209077
 C          2.7295873701       -1.4042673481       -0.3919594370
 N          4.0289828501       -1.6889330525       -0.4720707612
 C          4.9623583759       -0.7869622489       -0.1900418338
 C          6.3484308788       -1.1064776942       -0.2820618555
 C          6.7731721120       -2.3875890205       -0.6733359744
 C          8.1165796004       -2.6544151570       -0.7491594864
 C          9.0177859868       -1.6293916002       -0.4302657199
 N          8.6473831483       -0.4302243253       -0.0640660031
 C          7.3466184273       -0.1461665574        0.0169656776
 C          6.9499224719        1.1795358894        0.4212166623
 N          7.8982210583        2.0756609718        0.6990762871
 C          7.5499488417        3.2812083229        1.0661171570
 C          6.2176338294        3.6987287577        1.1883116598
 C          5.2236650884        2.7956593225        0.9084423152
 C          5.5709657033        1.4930853263        0.5115852180
 C          4.5694061176        0.5238701322        0.2106113078
 N          3.2779036009        0.8220722823        0.2944451130
 C          2.3311503254       -0.0748426634        0.0141434492
 C          0.9748736441        0.2236330947        0.1010039427
 C         -2.0656897335       -0.7902231200        1.0181103707
 C         -1.3990920701       -1.3935625377        2.0901685736
 C         -2.0858171007       -1.7700721555        3.2247630305
 C         -3.4508582421       -1.5509664962        3.3201009950
 C         -4.1152569248       -0.9476573801        2.2686209301
 C         -3.4423152030       -0.5612772158        1.1194597181
 H         -7.7816248503        3.7021852550        1.6311553407
 H         -5.4070994229        4.1998775714        1.9863593792
 H         -3.6639432325        2.5949943139        1.2711730033
 H         -8.4780095932        1.5915696208        0.5537814384
 H         -8.6599903677       -0.7403555515       -0.6091174964
 H         -8.2994881082       -2.9360377490       -1.6807292306
 H         -6.0319713119       -3.8084136953       -2.0111225880
 H         -4.0622055752       -2.5034567491       -1.2760153136
 H         -4.9711633387        1.4545203003       -2.1513665200
 H         -3.6199377605        2.2074731455       -4.0696020163
 H         -1.1986369112        1.6876728935       -4.1334455645
 H         -0.1581001230        0.4583745888       -2.2948467764
 H         -0.3557883892       -2.7496126944       -0.8256915036
 H          2.0498856405       -3.3298974984       -0.9887936612
 H          6.0233330931       -3.1303535691       -0.9045192311
 H          8.4790514064       -3.6263718294       -1.0458043651
 H         10.0858531960       -1.7977356514       -0.4766869731
 H          8.3645043287        3.9617650837        1.2773536688
 H          5.9881839918        4.7072770602        1.4954162499
 H          4.1761270476        3.0497743573        0.9818347516
 H          0.6768678922        1.2142601916        0.4066134094
 H         -0.3352175681       -1.5622152197        2.0269711348
 H         -1.5513085432       -2.2353499154        4.0392543111
 H         -3.9920126128       -1.8459351476        4.2056173821
 H         -5.1789813120       -0.7705926968        2.3329624622
