  54
 
 C          5.3673301719        0.8594964206       -0.2813674048
 C          4.6035057906        1.1311551733       -1.4048848889
 C          3.2928701466        0.7013499220       -1.4832956230
 C          2.7164990529       -0.0042271165       -0.4264160335
 N          1.3853796686       -0.4283491298       -0.4972264683
 C          0.4495346689        0.3083376050       -1.2416086093
 C         -0.4702449886       -0.3473533505       -2.0568700182
 C         -1.4050073956        0.3758239138       -2.7731071884
 C         -1.4301778907        1.7576099771       -2.6941377132
 C         -0.5101777503        2.4145772380       -1.8925721814
 C          0.4234168532        1.7000167534       -1.1685817915
 C          0.9979666058       -1.6408396299        0.0832544318
 C          1.8393550281       -2.7525356332        0.0149465793
 C          1.4689376257       -3.9648616354        0.5614731302
 C          0.2387203758       -4.1003045900        1.1855940601
 C         -0.6064148604       -3.0094819213        1.2679414161
 C         -0.2419002481       -1.7794853127        0.7328648209
 N         -1.1342508090       -0.6976403748        0.8488482150
 C         -0.8682799632        0.5192089961        1.4387062611
 C          0.2654273637        0.9390373715        2.1180398144
 C          0.2711117428        2.2199260730        2.6357413548
 C         -0.8284369330        3.0643153367        2.4953575705
 C         -1.9699597518        2.6419296633        1.8428752916
 C         -1.9982391040        1.3593063270        1.3114606200
 C         -2.9923032115        0.5994242669        0.6074047277
 C         -4.2861076520        0.8738492582        0.1835231698
 C         -4.9839061611       -0.1074016274       -0.4922630490
 C         -4.4056899304       -1.3482871510       -0.7529426383
 C         -3.1202856974       -1.6446212848       -0.3421958427
 C         -2.4186857399       -0.6658719328        0.3463965741
 C          3.4940241155       -0.2802225957        0.6992229557
 C          4.8054800905        0.1485803610        0.7664683073
 H          6.3917055063        1.1954525202       -0.2238428499
 H          5.0337834711        1.6751832021       -2.2332473933
 H          2.7077973950        0.9066547878       -2.3677369325
 H         -0.4481543209       -1.4258448437       -2.1239844130
 H         -2.1157470354       -0.1448116566       -3.3977873997
 H         -2.1637361166        2.3195109073       -3.2522112946
 H         -0.5266758770        3.4921410909       -1.8199586504
 H          1.1303500115        2.2114063831       -0.5321875418
 H          2.7891673509       -2.6524265689       -0.4896550477
 H          2.1374496248       -4.8093744138        0.4886318871
 H         -0.0579480871       -5.0463404049        1.6114094229
 H         -1.5611612670       -3.0916787581        1.7666334000
 H          1.1158429448        0.2874841749        2.2434347908
 H          1.1460245535        2.5726959019        3.1627708657
 H         -0.7858026508        4.0598742620        2.9127399566
 H         -2.8269195250        3.2922265423        1.7479601083
 H         -4.7326383959        1.8375938021        0.3784489090
 H         -5.9922174680        0.0859243815       -0.8284832676
 H         -4.9745301047       -2.0939014217       -1.2895563186
 H         -2.6758153318       -2.6055365064       -0.5549591063
 H          3.0688848950       -0.8378196561        1.5212443880
 H          5.3908492138       -0.0708750972        1.6476846368
