  87
 
 C         -2.7305693135        5.5093799170        1.5553006216
 C         -2.7324878674        4.9391817823        0.1340780638
 C         -2.5138865045        3.4602766673        0.1334996337
 C         -3.4801560882        2.4658161811        0.0740813337
 C         -4.9525434250        2.6419771102       -0.1137926477
 C         -5.3500720913        2.4989217342       -1.5857121076
 C         -2.7933315046        1.2331419038        0.1350982498
 C         -3.4240049336       -0.0365999844        0.1598563960
 C         -2.8282535077       -1.2503657129        0.1596508586
 N         -1.4138556828       -1.4550378829       -0.0360448167
 C         -1.1898341837       -2.8436754475        0.2829719937
 C          0.0344414708       -3.3998980345        0.4239288104
 C          1.2863282768       -2.7345879585        0.4490491887
 N          1.4606343156       -1.3797627034        0.4969446545
 C          2.8058136275       -1.1618389021        0.6059620007
 C          3.4321922514        0.1101560467        0.6387833819
 C          2.8343311223        1.3221215292        0.6751854164
 N          1.4143926557        1.5197446641        0.8353842222
 C          1.1974122675        2.9144918897        0.5386687620
 C         -0.0211139726        3.4698127627        0.3545068821
 C         -1.2710033636        2.8050490765        0.2785511215
 N         -1.4496454746        1.4498083683        0.2649230780
 C          2.4818355664        3.5585337994        0.4070490778
 C          2.6410878299        5.0217969342        0.1547715981
 C          2.4587723809        5.3692580628       -1.3254055011
 C          3.4560220055        2.6110294323        0.4897260365
 C          4.9315574070        2.7941045223        0.3503263835
 C          5.4066656477        2.5250259651       -1.0801637147
 C          3.4989317023       -2.3930356537        0.6141986303
 C          4.9810220471       -2.5644063188        0.7120979919
 C          5.6515453071       -2.5024765140       -0.6631287407
 C          2.5354302849       -3.3890283808        0.5339582415
 C          2.7495563731       -4.8666681091        0.4706203341
 C          2.6295043215       -5.3983769272       -0.9602223618
 C         -2.4692019907       -3.4769635948        0.4922417272
 C         -2.6231601718       -4.9372154511        0.7627855809
 C         -2.5299140407       -5.7552747500       -0.5283701744
 C         -3.4433968293       -2.5292841449        0.4202487959
 C         -4.9152896798       -2.7082312298        0.5971962680
 C         -5.6382555420       -2.7637065923       -0.7515459624
 Pt         0.0031712109        0.0334253823        0.3896917142
 H         -3.5181500587        5.0472914763        2.1472092166
 H         -2.8957373521        6.5850399199        1.5359295990
 H         -1.7788454143        5.3109474886        2.0439393207
 H         -3.6900727227        5.1630879382       -0.3399736441
 H         -1.9540474321        5.4328827682       -0.4540335052
 H         -5.4971575926        1.9036701753        0.4807508396
 H         -5.2483327225        3.6303577316        0.2431631846
 H         -5.0658440818        1.5183787387       -1.9618556792
 H         -6.4247326073        2.6217984887       -1.7065721088
 H         -4.8440359623        3.2516323142       -2.1869829206
 H         -4.4989027727       -0.0158458454        0.2487659948
 H         -1.1854763472       -1.2963490807       -1.0272638682
 H          0.0747622984       -4.4633486693        0.6002475887
 H          4.5084123269        0.0966689412        0.5702646397
 H          1.1640435031        1.3452504901        1.8192635391
 H         -0.0556489351        4.5362270817        0.1959255679
 H          3.6350498148        5.3392731591        0.4746852304
 H          1.9059880665        5.5722751514        0.7467751760
 H          2.5605347208        6.4418092165       -1.4751920366
 H          1.4765418784        5.0589474543       -1.6734734573
 H          3.2077064997        4.8624409792       -1.9286721626
 H          5.4451944617        2.1143273820        1.0341721496
 H          5.1993435211        3.8148517421        0.6284829305
 H          6.4885439663        2.6185828794       -1.1415014281
 H          5.1231780920        1.5234411670       -1.3939965680
 H          4.9579274346        3.2359851264       -1.7691555455
 H          5.4035641985       -1.7890198360        1.3562260311
 H          5.2062825815       -3.5290534192        1.1731512365
 H          5.4430692360       -1.5510487025       -1.1475797372
 H          6.7297516361       -2.6169676522       -0.5680576329
 H          5.2740674190       -3.2973079557       -1.3023356416
 H          2.0196756511       -5.3772612361        1.1056870886
 H          3.7428706724       -5.1053804485        0.8558988381
 H          2.7858469315       -6.4752162963       -0.9822224707
 H          1.6442544377       -5.1798460840       -1.3664129954
 H          3.3711707452       -4.9274997062       -1.6017687818
 H         -3.5885263786       -5.1247850481        1.2346444424
 H         -1.8436801911       -5.2625331293        1.4551762172
 H         -3.3219329779       -5.4681179113       -1.2160778280
 H         -1.5738652721       -5.5882343463       -1.0188141287
 H         -2.6285802513       -6.8161262794       -0.3104320751
 H         -5.1102970797       -3.6315864323        1.1442151895
 H         -5.3130553985       -1.8801340618        1.1876756706
 H         -6.7089956948       -2.8792191092       -0.6002798883
 H         -5.2791619642       -3.6052663927       -1.3392863357
 H         -5.4633707881       -1.8516436064       -1.3172592742
