  117
 
 C         -4.1165925213      -10.2934242521        2.9313040717
 C         -3.4888502824       -9.3134222649        1.9837906718
 C         -3.2619743545       -7.9983498202        2.4062226979
 C         -2.6855858388       -7.0501723302        1.5848396934
 C         -2.3375920094       -7.4344374191        0.2978188365
 C         -2.5271124630       -8.7637415578       -0.1395522366
 C         -3.1104572754       -9.6969399401        0.7088043303
 C         -1.9932905264       -8.8335733634       -1.4720002949
 C         -1.8907898361       -9.8487557846       -2.4147739222
 C         -1.3014565189       -9.5661326021       -3.6314493495
 C         -0.8248982330       -8.2884129036       -3.9200913125
 C         -0.9189810349       -7.2600951159       -3.0016366048
 C         -1.4972156578       -7.5433842894       -1.7727071173
 N         -1.7306741408       -6.7038851010       -0.7036661225
 C         -1.3811461456       -5.3445849374       -0.6401528538
 C         -0.0362237755       -4.9891606734       -0.7192153767
 C          0.3438072423       -3.6664375244       -0.6470128347
 C         -0.6258692592       -2.6761147323       -0.4958874622
 C         -0.2384059164       -1.2698499465       -0.4022827625
 N          1.0600660942       -0.9831668639       -0.3480176478
 C          1.3678277638        0.3075164864       -0.2428423742
 C          2.7815347903        0.6713271988       -0.1734173406
 C          3.7660588948       -0.3159200776       -0.1955185794
 C          5.0950349064        0.0436850904       -0.1432446406
 C          5.4640275373        1.3854589329       -0.0653315010
 N          6.8293460951        1.7110514631       -0.0206210219
 C          7.5220895037        2.4549958344       -0.9520249674
 C          7.0785064342        3.0005027678       -2.1484602017
 C          7.9935081145        3.6928089719       -2.9189619312
 C          9.3221610500        3.8296836521       -2.5213072232
 C          9.7764358392        3.2588847988       -1.3485193443
 C          8.8758445717        2.5597312296       -0.5550148910
 C          8.9970286045        1.8284684621        0.6762170062
 C         10.0546080681        1.5785158864        1.5423133462
 C          9.8366258340        0.8203425417        2.6794594772
 C         10.9524942108        0.5262782504        3.6388838251
 C          8.5548078481        0.3239650008        2.9450165502
 C          7.4851515272        0.5595261254        2.1047468460
 C          7.7153246956        1.3084956488        0.9600323030
 C          4.4871237410        2.3890165047       -0.0070405426
 C          4.8576427048        3.8304247412        0.1616008135
 C          3.1566022773        2.0092647107       -0.0737524182
 N          0.4673641193        1.2868846750       -0.1998105112
 C         -0.8069025092        0.9103995531       -0.2756714579
 C         -1.8327215035        1.9512365520       -0.2528653577
 C         -3.1747305871        1.6227323168       -0.4408481014
 C         -4.1291176007        2.6164992455       -0.4313902000
 C         -3.7644023861        3.9470007600       -0.2345130665
 N         -4.7644266578        4.9333669842       -0.2417551296
 C         -4.8781658177        5.9708353549       -1.1422580556
 C         -4.0988128792        6.2593197359       -2.2535627247
 C         -4.4443448328        7.3605302160       -3.0137912732
 C         -5.5453098788        8.1508388998       -2.6889303816
 C         -6.3431056189        7.8484896079       -1.6027670524
 C         -6.0168204719        6.7468223537       -0.8220515055
 C         -6.6195109801        6.1300169184        0.3276321389
 C         -7.7363680634        6.4263074929        1.0996908139
 C         -8.0540275818        5.6141292027        2.1743735198
 C         -9.2543552904        5.8967074888        3.0296779703
 C         -7.2431728530        4.5126779962        2.4731339812
 C         -6.1264323804        4.1960953396        1.7259327272
 C         -5.8234037017        5.0068710514        0.6419217542
 C         -2.4241960444        4.2914184011       -0.0111603191
 C         -2.0212799811        5.7039249333        0.2813090664
 C         -1.4776310610        3.2803242880       -0.0342955636
 N         -1.2053652972       -0.3557686831       -0.3728442196
 C         -1.9704507815       -3.0365797108       -0.4419520326
 C         -2.3715695520       -4.3600604462       -0.5191763194
 C         -3.8256116262       -4.7183103932       -0.5103877730
 H         -4.3012849395      -11.2453356277        2.4398854024
 H         -5.0618474331       -9.9072578438        3.3108017815
 H         -3.4617393445      -10.4667888747        3.7854657492
 H         -3.5432321137       -7.7218404303        3.4125991826
 H         -2.4944018509       -6.0481530179        1.9399960362
 H         -3.2578253483      -10.7139163660        0.3756834299
 H         -2.2664811071      -10.8375763877       -2.1977484968
 H         -1.2096598909      -10.3433828061       -4.3760268465
 H         -0.3742905608       -8.0977482771       -4.8833843290
 H         -0.5558397070       -6.2690169444       -3.2311646554
 H          0.7049668410       -5.7674298889       -0.8275952662
 H          1.3823424393       -3.3815885440       -0.6996155870
 H          3.4712450854       -1.3509846287       -0.2601777654
 H          5.8682248638       -0.7100810095       -0.1713359379
 H          6.0572966972        2.8721956441       -2.4756446288
 H          7.6738167828        4.1315781241       -3.8531550155
 H         10.0068443915        4.3796966811       -3.1503012034
 H         10.8117375052        3.3467383139       -1.0544656487
 H         11.0358095159        1.9761860183        1.3277584509
 H         11.0878752508       -0.5495402916        3.7469218357
 H         10.7238226397        0.9327019282        4.6238978846
 H         11.8870522113        0.9607296506        3.2931427865
 H          8.4009247394       -0.2606417036        3.8410114437
 H          6.5018372231        0.1745770086        2.3319088035
 H          4.0329032357        4.3790144035        0.6089709716
 H          5.7370856035        3.9302330321        0.7949360909
 H          5.0893387401        4.2882621808       -0.7994903553
 H          2.3792483405        2.7567596683       -0.0345864987
 H         -3.4454306207        0.5917737001       -0.6028910104
 H         -5.1710483992        2.3779068114       -0.5871751502
 H         -3.2613215845        5.6337782752       -2.5250879721
 H         -3.8529375398        7.6103194900       -3.8828711559
 H         -5.7818521887        9.0048017675       -3.3067677403
 H         -7.2083002562        8.4500343714       -1.3667903289
 H         -8.3473106625        7.2847546503        0.8613318890
 H         -8.9560088454        6.0444151107        4.0672897625
 H         -9.7742415564        6.7880734019        2.6877837040
 H         -9.9482138942        5.0568327702        2.9999378146
 H         -7.5024896935        3.8932911039        3.3200714197
 H         -5.5085240955        3.3467223858        1.9777813195
 H         -1.0815932749        5.7204673201        0.8271918125
 H         -2.7849717288        6.2077023168        0.8708419868
 H         -1.8898750251        6.2693863553       -0.6407238441
 H         -0.4370453834        3.5109256608        0.1347719978
 H         -2.7068022805       -2.2533288461       -0.3468629418
 H         -4.1359285033       -5.0617268512        0.4758794440
 H         -4.0259535152       -5.5227148075       -1.2159984300
 H         -4.4275915042       -3.8535019304       -0.7761887122
