72
 xtb: 6.7.1 (edcfbbe)
C           -2.97359240569847        4.80424661067866        1.30005237087667
C           -2.32222452448318        3.47911126465711        1.07083095711572
C           -0.94048036457151        3.34247220972713        1.22585264769726
C           -0.31823456673143        2.13716154005340        1.00606238856029
C           -1.05596448194657        1.01149095847136        0.60957352605360
C           -2.44497816418978        1.13168605372019        0.47317775772834
C           -3.04976920141468        2.35940685927738        0.70125399471896
C           -3.30584262333268       -0.04244772889908        0.09354988695343
C           -4.44069038769832       -0.21394304126292        1.09106285067427
C           -4.35301919873245       -0.49604489200276        2.43613451827818
C           -5.52978207238916       -0.60156058769198        3.16726417499434
C           -6.76282280683394       -0.42733446346332        2.55707366019876
C           -6.85376326358911       -0.14326847829148        1.20325944189804
C           -5.68403755914045       -0.03573977806936        0.46862931586908
C           -5.46053746811120        0.25364900454303       -0.94040632982176
C           -6.35023564554297        0.50441618217982       -1.97243446169572
C           -5.84470109522408        0.75292442954143       -3.23906056328855
C           -4.47807388176596        0.74863322330514       -3.47380096005620
C           -3.58078515125768        0.49767582641719       -2.44327814610123
C           -4.08027335159732        0.25399816042657       -1.18345595091951
C           -2.52104790305219       -1.31667874206719       -0.06278393511618
C           -3.20025254006457       -2.48546713347575       -0.36987330210590
C           -2.54027297686511       -3.68797558386925       -0.57565915289416
C           -3.29130550032457       -4.94387790967341       -0.87724050980363
C           -1.14777796202282       -3.69430268655688       -0.48611226111387
C           -0.45121133248488       -2.54842770633545       -0.18041912593414
C           -1.12423043410303       -1.34183164977473        0.05869369365730
N           -0.42191098841842       -0.19633924683697        0.38467113423306
C            0.99287336775719       -0.25718306447779        0.49670238548786
C            1.57443855426766       -0.86088824403426        1.59356783053330
C            2.96580115746588       -0.96308709116011        1.76421734477271
C            3.78141040082730       -0.43845145185280        0.78953210963943
C            3.17914930918095        0.18239811138458       -0.33374795097451
C            4.15104205506678        0.67031713885119       -1.24074138476566
C            3.72626360074086        1.30044539813340       -2.38467685572404
C            2.33955323568024        1.42743438184608       -2.60019808082986
C            1.39857068595379        0.95352053727817       -1.71884934072658
C            1.80581009529245        0.30260156535578       -0.53005704654252
C            5.43929230323355        0.33910362291171       -0.65902304576196
N            6.65065148164155        0.58422887417416       -1.13504387591821
C            7.65333729177500        0.15713399561182       -0.37759097271866
N            8.94244075735375        0.24021212950199       -0.55638636672807
O            9.52214735142891       -0.36358583668204        0.53121576042926
N            8.58267122165421       -0.83645601066555        1.41384541656366
C            7.41891422657194       -0.54191353333621        0.90236889329789
N            6.19552200644917       -0.77603839789125        1.35717870688661
C            5.21107202643291       -0.33887975291201        0.58192192232087
H           -4.05152328742675        4.74735788278363        1.07600188387471
H           -2.51430014987134        5.57703817800422        0.68241828576167
H           -2.85611639666337        5.09559110499483        2.35827248433754
H           -0.34956035736562        4.19523290967452        1.52847892725056
H            0.74841940658830        2.05340814187954        1.14987151101626
H           -4.11874718328163        2.43737231011393        0.57836595712665
H           -3.39240062506423       -0.62748916504901        2.91455695351017
H           -5.48094126016451       -0.81917967799195        4.22405654956938
H           -7.66293118211379       -0.51206899701531        3.14688526782906
H           -7.81566683604601       -0.00691026354175        0.73419838786825
H           -7.41577997108240        0.50660636976529       -1.79466141829761
H           -6.52543080571007        0.94935249034397       -4.05546023810698
H           -4.10754764120718        0.94070414024202       -4.47007074221930
H           -2.51808941153051        0.49022615227282       -2.63313558603778
H           -4.27659075803820       -2.44753712156842       -0.45456702299674
H           -3.34120076707299       -5.56777527905495        0.01758239276356
H           -2.78858523901771       -5.51750357728212       -1.65114713766161
H           -4.30735820959844       -4.72459362008532       -1.19500159570289
H           -0.60605639102669       -4.61163308604487       -0.66004513852306
H            0.62546953243565       -2.57930921424398       -0.12716058605774
H            0.93019831593466       -1.27391561825375        2.35675209695772
H            3.37182331652588       -1.44074569927235        2.64255609071467
H            4.42835600032145        1.69006464360618       -3.10478902067921
H            2.00954767682693        1.92157203532299       -3.50165029332795
H            0.34737479369755        1.08234779004378       -1.92746467668640
