70

C     -2.325372    4.484494   -0.709986
C     -1.720938    3.775268    0.328279
C     -2.098823    2.457801    0.591331
C     -3.092554    1.853841   -0.187833
N     -3.464085    0.501125    0.042485
C     -2.580767   -0.578896    0.117610
C     -1.115750   -0.521637    0.088636
C     -0.386180   -1.114524    1.124599
C      1.012673   -1.080792    1.120689
C      1.719540   -0.466648    0.074730
C      3.191296   -0.428043    0.072326
C      3.927065   -0.878809   -1.033066
C      5.326856   -0.838625   -1.034231
C      6.035612   -0.347030    0.069206
C      7.491506   -0.320453    0.030256
C      8.337575    0.082330    1.043767
N      9.608695   -0.069177    0.549509
C     10.834433    0.191599    1.158329
C     11.967130   -0.035982    0.471377
C     11.875268   -0.548368   -0.888294
C     10.684615   -0.797685   -1.468690
C      9.482131   -0.558091   -0.744864
N      8.218423   -0.715809   -1.074625
C      5.306846    0.104343    1.175842
C      3.905562    0.063144    1.175982
C      0.978350    0.102010   -0.973581
C     -0.420966    0.068394   -0.972630
N     -3.242143   -1.717650    0.126252
C     -4.574328   -1.394530    0.071701
C     -5.685996   -2.264501   -0.003520
C     -5.433967   -3.649363   -0.105148
C     -6.486139   -4.552044   -0.207916
C     -7.791277   -4.080285   -0.208802
C     -8.043972   -2.706647   -0.099186
C     -7.002430   -1.747825    0.012256
C     -7.194842   -0.335460    0.168045
C     -8.477809    0.259730    0.260389
C     -8.659372    1.627475    0.481665
C     -7.559051    2.452222    0.637638
C     -6.277857    1.915620    0.540400
C     -6.072974    0.541854    0.265379
C     -4.762837   -0.015837    0.122165
C     -3.694924    2.563565   -1.235976
C     -3.309722    3.879980   -1.491583
H     -2.025278    5.509787   -0.912692
H     -0.952318    4.249709    0.933749
H     -1.623546    1.931192    1.415709
H     -0.906777   -1.615291    1.938826
H      1.549939   -1.559654    1.937059
H      3.416448   -1.280564   -1.906081
H      5.864261   -1.200441   -1.909486
H      8.163543    0.450356    2.043237
H     10.819986    0.571004    2.171711
H     12.946682    0.149920    0.898603
H     12.801021   -0.726283   -1.427359
H     10.611559   -1.179416   -2.480410
H      5.807907    0.499231    2.054604
H      3.372110    0.433201    2.049407
H      1.489169    0.585184   -1.804553
H     -0.957728    0.506722   -1.810941
H     -4.410056   -4.020228   -0.111470
H     -6.285129   -5.616465   -0.289757
H     -8.620746   -4.778187   -0.290445
H     -9.086224   -2.401049   -0.098764
H     -9.379162   -0.341176    0.178027
H     -9.663627    2.036780    0.554763
H     -7.692046    3.510917    0.843555
H     -5.447951    2.591133    0.718530
H     -4.447611    2.100685   -1.871496
H     -3.772922    4.432849   -2.305237
