56

O      4.410792   -1.050077   -0.182486
C      5.240969   -0.192794    0.117845
C      4.874825    1.256744    0.375005
C      3.632258    1.716271   -0.346788
C      2.388054    1.183672   -0.052252
C      1.297361    1.682379   -0.746576
C     -0.083913    1.194874   -0.535769
C     -0.527192    0.712630    0.710140
C     -1.837257    0.252490    0.889708
C     -2.745946    0.264794   -0.173824
N     -4.080214   -0.204347    0.009905
C     -4.401025   -1.596223   -0.108213
C     -3.444796   -2.576586   -0.426191
C     -3.801685   -3.925173   -0.531965
C     -5.120760   -4.318447   -0.323954
C     -6.084557   -3.362956   -0.012209
C     -5.726563   -2.014960    0.092770
O     -6.750680   -1.147971    0.398485
C     -6.445642    0.189799    0.504798
C     -7.517929    1.033259    0.813117
C     -7.311147    2.403712    0.947730
C     -6.033328    2.928564    0.775683
C     -4.961549    2.083799    0.467542
C     -5.148763    0.697864    0.323602
C     -2.326804    0.747103   -1.417103
C     -1.016714    1.206273   -1.590898
N      1.439278    2.654687   -1.675014
C      2.680374    3.111193   -1.883686
N      3.791446    2.697512   -1.259303
C      6.665997   -0.608825    0.286067
C      7.074018   -1.826226   -0.276897
C      8.394266   -2.259407   -0.142652
C      9.313539   -1.482480    0.559215
C      8.913903   -0.275089    1.130572
C      7.592891    0.162589    0.998499
H      5.702223    1.899430    0.052934
H      4.735750    1.395995    1.453195
H      2.287117    0.383402    0.670492
H      0.137374    0.701979    1.570776
H     -2.153645   -0.112109    1.864101
H     -2.406496   -2.307312   -0.600733
H     -3.045179   -4.665873   -0.779349
H     -5.398136   -5.365895   -0.406960
H     -7.116319   -3.663317    0.148076
H     -8.512567    0.617394    0.948031
H     -8.143727    3.059873    1.186950
H     -5.865099    3.997554    0.880613
H     -3.978386    2.529789    0.342737
H     -3.020450    0.765305   -2.253982
H     -0.719746    1.575157   -2.571890
H      2.796597    3.891834   -2.627307
H      6.364364   -2.442926   -0.826070
H      8.702907   -3.203428   -0.585227
H     10.341813   -1.820526    0.664228
H      9.633096    0.325040    1.683478
H      7.315003    1.099988    1.471002
