111
 xtb: 6.7.1 (edcfbbe)
N            0.12656752089629        4.00566676108438       -0.02037812900263
C            0.10075605146767        2.84847994196078       -0.00930970222190
C            0.05630635502535        1.45592575743120        0.00045823180621
C            1.26418670691579        0.69073449562364       -0.00901752542924
C            2.56178632749054        1.35315965749333        0.02057804280417
C            2.82962906477068        2.38525681124549        0.92738144130809
C            4.05961294134798        2.99905289086889        0.95982658749017
C            5.07153147495405        2.60991728332299        0.07506254553298
N            6.31838913572958        3.23395078738097        0.10236647871954
C            6.40855099488120        4.60318525607421        0.37075406372259
C            7.47175633618884        5.10802694741559        1.12317666157341
C            7.55882283540276        6.46222361001794        1.37943316482690
C            6.59183881063331        7.33156830667800        0.89776323627790
C            5.53132154002738        6.83466720342856        0.15532068296115
C            5.43623739504864        5.48293495717721       -0.11109815535808
C            7.47700096185945        2.48895272810011       -0.13733245721947
C            8.54462171343786        3.05050153884190       -0.84184761078640
C            9.68821072635564        2.31177427029557       -1.07345600131980
C            9.78625759007192        1.00724838531817       -0.61373410964663
C            8.72733090586805        0.44370601976231        0.08199308933438
C            7.58031186950197        1.17418211311761        0.32338233693142
C            4.80888120963355        1.58374440001459       -0.83891455477639
C            3.57953303733093        0.96860229110964       -0.86123640973084
C            1.17735440529369       -0.70521514386624       -0.02311775167600
C            2.36321070829450       -1.43570190734087        0.18014226198214
N            3.32934549198891       -2.01570293709791        0.42197519622063
C           -0.06221612370983       -1.39149596658695       -0.02515035586903
C           -0.12654261277715       -2.83229524807951       -0.03117055831315
C           -1.07703048564797       -3.52711845543686        0.73998563182926
C           -1.13356089036829       -4.89789699965758        0.73857542358251
C           -0.24471509423038       -5.64770611284695       -0.04360225525738
N           -0.29909461766911       -7.04211934788830       -0.04606196161924
C           -1.53467531925197       -7.68925979445613        0.02482553839667
C           -2.65351415499453       -7.14664561463080       -0.61346915275144
C           -3.87415932565838       -7.78743106121138       -0.53694191391144
C           -4.00167266282068       -8.97485118025574        0.16832495041923
C           -2.89492240872669       -9.51701144064288        0.80451585889460
C           -1.67004196231848       -8.88325965541659        0.73879375567993
C            0.88327083539857       -7.78190871600173       -0.11572656937982
C            2.04023149768342       -7.32533092549966        0.52206270477826
C            3.20839997179962       -8.05748300526715        0.44684216239642
C            3.24499590454198       -9.25226871835244       -0.25656249400455
C            2.10017570644205       -9.70942479628201       -0.89214681171875
C            0.92721252699570       -8.98381993854730       -0.82789629939795
C            0.70073269439163       -4.96836990656175       -0.82370455749239
C            0.75798135438992       -3.59783244563174       -0.81431266826070
C           -1.25464307266377       -0.59348149461425       -0.01316966746901
C           -2.50856113122223       -1.19070365303347       -0.18322200775623
N           -3.54800390294449       -1.65761984811187       -0.37251574869169
C           -1.19227828718190        0.80132943163446        0.00101077035912
C           -2.43535168702081        1.58290768727347       -0.00778825512348
C           -2.67404150765490        2.53668334538270       -0.99710768017520
C           -3.85144200764295        3.25024153568003       -1.01892908670291
C           -4.82678798130411        3.03732465112399       -0.04027149265689
N           -6.02071136539838        3.75735284239980       -0.06462873160807
C           -7.21980294104969        3.14931606571313        0.31873380004888
C           -7.45587356791709        1.80316022826792        0.03018884329562
C           -8.64333073153224        1.21056617005470        0.41374791351033
C           -9.61211243864833        1.94452130824207        1.08177559478646
C           -9.38359624149971        3.28189850813518        1.36752751533901
C           -8.19783856807450        3.88380384896331        0.99372950216012
C           -6.01526536097810        5.09373957516165       -0.48552443226411
C           -4.96551135383155        5.94137055457676       -0.12168250356694
C           -4.96122822796276        7.25732849710565       -0.54163780480328
C           -5.99743652615765        7.74757553323557       -1.32437465721841
C           -7.04250361310718        6.90957098055505       -1.68666150729721
C           -7.05644493761046        5.59150994432247       -1.27323501060426
C           -4.58512749517546        2.09112452791322        0.95956636805595
C           -3.40995047404179        1.37341368426156        0.96849814088471
H            2.06062301333160        2.68568318487110        1.61743221796525
H            4.24531695020118        3.77795498456922        1.67847162196178
H            8.20977823530897        4.42804220564659        1.52892647686641
H            8.37516281412762        6.83844113812439        1.98387441306038
H            6.66112690010149        8.38858013777540        1.10945102099007
H            4.78038896058958        7.50503997693723       -0.22883258617805
H            4.62189650108351        5.10050783522516       -0.70294595164506
H            8.46745660252707        4.05746565854430       -1.19996245583963
H           10.51230330410626        2.75047595753367       -1.59858507629600
H           10.68505078007196        0.43012492030877       -0.76729139521116
H            8.79538738654185       -0.57006028289963        0.47215332388878
H            6.75832851138997        0.73836207564050        0.88964542594918
H            5.58170552689759        1.28442588552955       -1.53687366649826
H            3.39554408703032        0.19246792824702       -1.59574857938538
H           -1.75249065375748       -2.96871401684408        1.36400641271128
H           -1.85480184644550       -5.40434170045850        1.35662708188785
H           -2.54994730740453       -6.23015570376228       -1.18207021379519
H           -4.72753390238481       -7.35940462516870       -1.05027825167439
H           -4.96032340767253       -9.47005812459370        0.21481471097443
H           -2.99523905945169      -10.43192287051104        1.36270349505238
H           -0.81917750377534       -9.29352902564582        1.25360012437926
H            2.00587450677792       -6.40086576316811        1.08718947611382
H            4.08996048856619       -7.69516609035318        0.96127819053322
H            4.15900375634437       -9.82376650020309       -0.29283440235031
H            2.12551264129206      -10.63702620939368       -1.43661411528696
H            0.04340241257036       -9.33378521127935       -1.33340630303644
H            1.37482114029501       -5.53589862367792       -1.45487408849500
H            1.47443683670646       -3.09984179497596       -1.45718244453369
H           -1.95329795427779        2.67926065362212       -1.80503322340080
H           -4.04703961576133        3.95011665130521       -1.83236849966115
H           -6.71114690365757        1.23898001633046       -0.50321958032438
H           -8.80593650110773        0.17179566042370        0.20529569359103
H          -10.51150078979674        1.47087669149447        1.43565291163844
H          -10.09443880950726        3.84861767487790        1.96126726320199
H           -7.98943212082472        4.91647688469671        1.27177921300541
H           -4.13219027960333        5.55929341646962        0.41826076267623
H           -4.13514618567051        7.89882272623259       -0.33151373841877
H           -6.02590637640374        8.77776770724621       -1.65820314202311
H           -7.91026689940759        7.28914999141873       -2.23946988192605
H           -7.90353925154137        4.94182580914682       -1.50520974268922
H           -5.30248680371894        1.95074553662578        1.73931477285988
H           -3.21306789671783        0.67001287466951        1.75114495108177
