  67
 
 O          2.1553133926        0.8062338431       -1.8554534166
 P          2.6647186607        0.2952071858       -0.5681527845
 C          1.9141189226        1.0794199846        0.8879765308
 C          1.4986868333        2.3945649592        0.7384453564
 C          0.9474388453        3.0726979578        1.8100713488
 C          0.8081424183        2.4335365316        3.0308716888
 C          1.2233560800        1.1203165348        3.1811321277
 C          1.7825800426        0.4418246488        2.1138910695
 C          4.4583052532        0.5177114978       -0.3697209617
 C          5.1687472359        1.0557430247       -1.4332132446
 C          6.5342326045        1.2543682792       -1.3234428870
 C          7.1867438561        0.9182606533       -0.1483467756
 C          6.4762617160        0.3854817154        0.9173195276
 C          5.1122266669        0.1859496289        0.8111315851
 C          2.3736531690       -1.4942461718       -0.3761058853
 C          3.3341323122       -2.4832083499       -0.5343369993
 C          2.9967207493       -3.8328118909       -0.4731189897
 C          1.6933825375       -4.2438905964       -0.2617478220
 C          0.7110163502       -3.2725110481       -0.1080545546
 C          1.0688931671       -1.9116994528       -0.1691894721
 O         -0.0016108416       -1.0924348207        0.0040540775
 C         -1.0716231180       -1.9123014098        0.1781773010
 C         -2.3771865275       -1.4962419995        0.3827139207
 P         -2.6754387774        0.2922670914        0.5728811970
 O         -2.1826059237        0.8030469539        1.8667841949
 C         -4.4673488434        0.5092673392        0.3540063231
 C         -5.1905437886        1.0522415003        1.4063094377
 C         -6.5551436972        1.2473849989        1.2803293932
 C         -7.1939813035        0.9029507765        0.1001523107
 C         -6.4707192546        0.3652671726       -0.9544051703
 C         -5.1075607379        0.1691883820       -0.8319868778
 C         -1.9115044213        1.0824836103       -0.8730067165
 C         -1.7660189648        0.4495338978       -2.0997382930
 C         -1.1979520342        1.1331717514       -3.1589420168
 C         -0.7883734193        2.4471468184       -3.0002426570
 C         -0.9418572735        3.0817831033       -1.7788152119
 C         -1.5013563097        2.3982951752       -0.7148844885
 C         -3.3364384900       -2.4862265950        0.5424363729
 C         -2.9974192608       -3.8355219092        0.4846568921
 C         -1.6934122063       -4.2453115934        0.2749745200
 C         -0.7122888147       -3.2729653562        0.1197921408
 H          1.6022483609        2.8619528696       -0.2312341935
 H          0.6220201070        4.0963216624        1.6932277812
 H          0.3667850697        2.9564426109        3.8664250824
 H          1.1045441296        0.6217592742        4.1321370921
 H          2.1001381887       -0.5860399106        2.2269434506
 H          4.6324998773        1.3103357454       -2.3369298137
 H          7.0876669001        1.6717725031       -2.1517825262
 H          8.2520600015        1.0728459928       -0.0606716282
 H          6.9878836239        0.1273397091        1.8329109114
 H          4.5494649049       -0.2250791978        1.6365284414
 H          4.3604839162       -2.1912727179       -0.7045308539
 H          3.7745578446       -4.5710634492       -0.5964502873
 H          1.4404492695       -5.2915856834       -0.2183381971
 H         -4.6648438688        1.3132668741        2.3143728987
 H         -7.1184635186        1.6684349020        2.1001391600
 H         -8.2585989091        1.0546877727       -0.0001329151
 H         -6.9716812200        0.1003774426       -1.8739637675
 H         -4.5349576771       -0.2456905389       -1.6486510240
 H         -2.0795587538       -0.5787884654       -2.2195427245
 H         -1.0677096707        0.6380403002       -4.1102264079
 H         -0.3401578043        2.9741936122       -3.8295148950
 H         -0.6208396515        4.1060457692       -1.6553336246
 H         -1.6155501462        2.8620083489        0.2554073914
 H         -4.3632999096       -2.1950596553        0.7110032813
 H         -3.7744108588       -4.5744741666        0.6090988926
 H         -1.4390160106       -5.2927474267        0.2339073839
