  52
 
 O          7.3390891204       -0.1279423695       -1.2926996085
 C          6.0628062076        0.4428609418       -1.4839664339
 C          5.1102558075        0.2209553061       -0.3330676668
 C          5.5914804277        0.0442619733        0.9577345735
 C          4.7117468730       -0.1503962496        2.0087496664
 C          3.3475512636       -0.1661135817        1.7819691550
 C          2.8503634408        0.0159154600        0.4946749432
 C          1.3914620423        0.0068763975        0.2428025901
 C          0.6826220240       -1.2019650004        0.2822754460
 C          1.3301684084       -2.4394490776        0.5403258488
 C          0.6349993247       -3.6091610708        0.5644941146
 C         -0.7535940832       -3.6160698469        0.3210447316
 C         -1.4107283626       -2.4532012248        0.0600933984
 C         -0.7262635805       -1.2089035888        0.0364204112
 C         -1.3913362561       -0.0067547302       -0.2426881214
 C         -2.8502754464       -0.0158211798       -0.4945308116
 C         -3.3474321840        0.1654220227       -1.7819505069
 C         -4.7116146648        0.1494455453       -2.0087468716
 C         -5.5913508929       -0.0446724623       -0.9576331328
 C         -5.1101692012       -0.2204445044        0.3333038478
 C         -6.0625803676       -0.4417729272        1.4843990170
 O         -7.3401419349        0.1256403011        1.2915069258
 C         -3.7403052427       -0.2044521892        0.5562649446
 C         -0.6824821156        1.2020759812       -0.2822189432
 C         -1.3300498659        2.4395307142       -0.5403924694
 C         -0.6349113369        3.6092561945       -0.5645192071
 C          0.7536584689        3.6161926057       -0.3209237253
 C          1.4108093665        2.4533393138       -0.0599275988
 C          0.7263957054        1.2090190545       -0.0363099972
 C          3.7403933791        0.2051840572       -0.5560087486
 H          7.2293145843       -1.0739730081       -1.1354169306
 H          6.2452260725        1.5169227844       -1.6055619201
 H          5.6114636070        0.0695860246       -2.4152087646
 H          6.6576730076        0.0641915789        1.1321318352
 H          5.0931631085       -0.2879199357        3.0101373446
 H          2.6587172467       -0.3134957481        2.6012900723
 H          2.3961025752       -2.4350331994        0.7144372292
 H          1.1421318128       -4.5423626103        0.7630357287
 H         -1.2890553335       -4.5543940628        0.3358433293
 H         -2.4721597587       -2.4602096530       -0.1393417205
 H         -2.6585775848        0.3123642282       -2.6013327412
 H         -5.0930248416        0.2863282098       -3.0102218796
 H         -6.6575260658       -0.0649089530       -1.1320947606
 H         -6.2425552951       -1.5159672706        1.6085003486
 H         -5.6123601256       -0.0652554669        2.4148838343
 H         -7.2325064543        1.0715525444        1.1319916785
 H         -3.3560939223       -0.3392214931        1.5579430009
 H         -2.3959653394        2.4350478066       -0.7146323007
 H         -1.1420422480        4.5424395397       -0.7631471310
 H          1.2890909373        4.5545346603       -0.3356672755
 H          2.4722266565        2.4603945863        0.1395748785
 H          3.3561910362        0.3405215725       -1.5576156267
