  69
 
 C          6.6597460976        1.5393428681        0.8650980371
 C          6.0818671978        0.3201891665        1.1838069227
 C          4.7775364740        0.0541260021        0.8150159650
 C          4.0396345268        1.0115589417        0.1218989227
 C          2.6565697498        0.7369439099       -0.2643630265
 N          1.9314785524        1.7405847694       -0.7467258688
 C          0.6678080918        1.4555852288       -1.0444193103
 C         -0.1855050783        2.5238230163       -1.5602100948
 C          0.2958867748        3.8280369966       -1.6440333286
 C         -0.5274178386        4.8396323963       -2.0996796801
 C         -1.8329532374        4.5590605544       -2.4724346406
 C         -2.3157636742        3.2615684800       -2.3926755194
 C         -1.4975841225        2.2449798309       -1.9402207201
 N          0.1187359668        0.2580034698       -0.8857564907
 C          0.9267511727       -0.6833142815       -0.4107676341
 N          0.3945641690       -1.9371643045       -0.2685250544
 C          1.0712748596       -3.1051068355       -0.6253680385
 C          2.4304186717       -3.3365691007       -0.7351231015
 C          2.8373666135       -4.5967387184       -1.1389972249
 C          1.9168097470       -5.5975719700       -1.4321822741
 C          0.5584038177       -5.3630973462       -1.3364629170
 C          0.1287561334       -4.1075568468       -0.9300460119
 C         -1.1779101096       -3.5371881581       -0.7267446706
 C         -2.4527134495       -4.0738660347       -0.9063231846
 C         -3.5504760363       -3.2941398800       -0.6249510526
 C         -3.3646693277       -2.0246293635       -0.0789520304
 C         -4.3065192073       -1.0605734061        0.4101003072
 C         -5.6950995891       -1.0283709225        0.4458824604
 C         -6.3158267755        0.0438885820        1.0523834463
 C         -5.5670576245        1.0606031190        1.6409460314
 C         -4.1856134063        1.0482512965        1.6183107362
 C         -3.5536485167       -0.0063259750        0.9737309482
 N         -2.2049636411       -0.2730949075        0.8187891720
 C         -1.1794357619        0.4293515218        1.4664420662
 C         -1.1154701324        1.8184778044        1.3978722010
 C         -0.0753279278        2.4923441491        2.0092348892
 C          0.9046927871        1.7957941225        2.6973743468
 C          0.8276603188        0.4167271484        2.7910190560
 C         -0.2137903878       -0.2661622136        2.1902841550
 C         -2.0761600306       -1.4861914844        0.1660817273
 C         -0.9757627784       -2.2165438729       -0.2753971607
 N          2.2037047416       -0.5016398055       -0.0975246410
 C          4.6231394507        2.2372417407       -0.1915948006
 C          5.9285661819        2.4962753236        0.1783706610
 H          7.6805156576        1.7442764228        1.1532836590
 H          6.6523263497       -0.4226527676        1.7220162347
 H          4.3097541204       -0.8862593487        1.0615454689
 H          1.3121573541        4.0258753328       -1.3418187283
 H         -0.1545668878        5.8515158523       -2.1633403413
 H         -2.4754394131        5.3526853880       -2.8252373048
 H         -3.3336800426        3.0450208137       -2.6821811272
 H         -1.8554068303        1.2294841887       -1.8697524126
 H          3.1416963488       -2.5580475961       -0.5144722896
 H          3.8931644222       -4.8062058382       -1.2263599414
 H          2.2718720554       -6.5694920210       -1.7414375960
 H         -0.1567384576       -6.1365866029       -1.5716186340
 H         -2.5642150480       -5.0829964316       -1.2705574603
 H         -4.5507811380       -3.6646453093       -0.7868613904
 H         -6.2711378090       -1.8308297138        0.0105529086
 H         -7.3939832292        0.0930576965        1.0871505090
 H         -6.0777474475        1.8761020525        2.1316356245
 H         -3.6244997774        1.8307851302        2.1044176785
 H         -1.8479375609        2.3606302387        0.8204666481
 H         -0.0197823073        3.5678966086        1.9285799309
 H          1.7274620639        2.3248857835        3.1540130071
 H          1.5848047469       -0.1330256745        3.3302551561
 H         -0.2785294667       -1.3412998879        2.2725819506
 H          4.0380808853        2.9675407809       -0.7278793510
 H          6.3809079681        3.4457378908       -0.0681447740
