  34
 
 Br         5.1099336452       -1.0340554592        0.0300934590
 C          3.9314772754        0.4808591160        0.0239491865
 C          4.4741356776        1.7560894434        0.0389779179
 C          3.5603462869        2.8221017869        0.0269665483
 C          2.2149920307        2.5606425912        0.0039749786
 C          1.7740194299        1.2140405993       -0.0069666711
 C          0.4140842175        0.8595040223       -0.0102649428
 N         -0.6394571833        1.6898822299       -0.0237948013
 C         -1.7232520480        0.9173278238       -0.0795466335
 C         -3.0950619722        1.3123299654       -0.0505327560
 C         -3.5240352797        2.6351533592       -0.0440649332
 C         -4.8823698802        2.9180249369        0.0213780674
 C         -5.7702195906        1.8484748690        0.0444395104
 N         -5.3710337036        0.5995907963        0.0525063776
 C         -4.0773972895        0.2788526630        0.0122875140
 C         -3.6982061083       -1.1056203995       -0.0049338241
 N         -4.6409752326       -2.0392769489        0.0088002518
 C         -4.3632252708       -3.3091761100        0.0243709207
 C         -3.0337231665       -3.7879336785        0.0654582351
 C         -2.0177012004       -2.8763848904       -0.0155702481
 C         -2.3024165193       -1.4938811863       -0.0609529669
 C         -1.3619349206       -0.4661539750       -0.0833283332
 N         -0.0021634983       -0.4673976804       -0.0040910244
 N          2.6643244161        0.1814040980       -0.0010875405
 H          5.5391790057        1.9131127719        0.0533241585
 H          3.9289684481        3.8364209574        0.0363195343
 H          1.4719612968        3.3404366147        0.0015948079
 H         -2.7839684809        3.4185201783       -0.1048373304
 H         -5.2459888402        3.9319494900        0.0381759870
 H         -6.8406701837        2.0020125297        0.0623963378
 H         -5.2014137433       -3.9900227655       -0.0146625238
 H         -2.8448731837       -4.8478691598        0.1037274397
 H         -0.9883773826       -3.2017268409       -0.0685455564
 H          0.6395742370       -1.2396709772       -0.0216351636
