  66
 
 C         -3.4772827615       -4.0449277789       -0.0268597081
 C         -2.7619890107       -3.7092555063        1.1106523236
 C         -1.9943936220       -2.5592303368        1.1354940571
 C         -1.9382582538       -1.7267526378        0.0228272720
 C         -1.1371221853       -0.4795190955        0.0440747799
 C         -1.8016807492        0.7379999990       -0.0323515119
 C         -3.2594966387        0.7907502834       -0.2025549678
 C         -3.8111662399        1.4685391599       -1.2909253427
 C         -5.1798727328        1.5068086524       -1.4768493189
 C         -6.0240443302        0.8820887637       -0.5725091057
 C         -5.4880604436        0.2200302455        0.5202408179
 C         -4.1192109890        0.1712850045        0.7036590086
 C         -1.0620295784        1.9679957520        0.1215612410
 C         -1.7057614228        3.1975775414        0.2654050604
 C         -0.9871375524        4.3744203421        0.4188232437
 C          0.4101114732        4.3643220730        0.4167510470
 C          1.1758431724        5.5574324245        0.5550341101
 C          2.5567987365        5.5137660032        0.5613998609
 C          3.2263149723        4.3163392872        0.4185813089
 C          2.5050129308        3.0951357078        0.2652206568
 C          3.1444250026        1.8810507588        0.0515842781
 C          2.4317994142        0.6761978239       -0.0961130243
 C          3.2005620707       -0.4918986572       -0.5410907298
 C          2.8019976715       -1.1979662996       -1.6761068677
 C          3.5673496995       -2.2393643031       -2.1614184757
 C          4.7436626481       -2.5983346193       -1.5224005088
 C          5.1530673040       -1.9001777239       -0.3986085775
 C          4.3951598633       -0.8493764527        0.0820736779
 C          1.0359408090        0.6734822783        0.0698855164
 C          0.2585485980       -0.5402313653        0.1584189544
 C          0.9082545295       -1.8077036617        0.4919435420
 C          1.7352057795       -1.8728243611        1.6166325822
 C          2.3109827312       -3.0658536362        2.0020790973
 C          2.0846250800       -4.2199424111        1.2679899229
 C          1.2762468340       -4.1665676572        0.1444078926
 C          0.6879595787       -2.9772356499       -0.2376976546
 C          0.3554525267        1.9193716296        0.1634579222
 C          1.0850384714        3.1258296041        0.2797082679
 C         -2.6635744761       -2.0678886912       -1.1136497938
 C         -3.4259076342       -3.2215233737       -1.1389954266
 H         -4.0748294092       -4.9448353597       -0.0456778697
 H         -2.8008448328       -4.3464003304        1.9826049073
 H         -1.4396151214       -2.2971745639        2.0254445916
 H         -3.1537801289        1.9482114573       -2.0028554772
 H         -5.5908328339        2.0256668545       -2.3312967737
 H         -7.0940547302        0.9143787034       -0.7172260532
 H         -6.1405769818       -0.2607013616        1.2350035360
 H         -3.7078173933       -0.3343240205        1.5646271008
 H         -2.7846144808        3.2339909175        0.2683034245
 H         -1.5108186973        5.3115681757        0.5403765149
 H          0.6543980501        6.4978149070        0.6526704191
 H          3.1189056909        6.4305569850        0.6723612155
 H          4.3054192555        4.2836019745        0.4126446188
 H          4.2205779477        1.8597130410       -0.0423195760
 H          1.8931931086       -0.9087476519       -2.1847497906
 H          3.2483899272       -2.7730374901       -3.0452846431
 H          5.3395677484       -3.4157193051       -1.9012591971
 H          6.0693432910       -2.1749844202        0.1043391463
 H          4.7150636084       -0.3144534307        0.9650079875
 H          1.9031643533       -0.9776068864        2.1992428642
 H          2.9377703974       -3.0989294372        2.8819036696
 H          2.5378701666       -5.1530590516        1.5689701466
 H          1.1023434239       -5.0592354568       -0.4393226137
 H          0.0746149722       -2.9443262986       -1.1254701266
 H         -2.6225228808       -1.4265116996       -1.9828774034
 H         -3.9828251713       -3.4771842390       -2.0291166482
