79
 xtb: 6.7.1 (edcfbbe)
C            5.97045582254453        4.34656824225180       -0.67517450630782
C            4.93084011812414        3.63260942053413       -1.25077351010366
C            4.86679625526097        2.25905278113243       -1.11789270607264
C            5.84774405174593        1.57728820942898       -0.39475127431775
N            5.78805115023927        0.18584444914352       -0.25352008804423
C            6.96840703257644       -0.56669300405087       -0.27140609577943
C            8.01599509740949       -0.21952481309512       -1.12614162412951
C            9.18021635638727       -0.96309818089112       -1.13467315263890
C            9.31722139139050       -2.06237457251841       -0.30101885542885
C            8.27847006759272       -2.41282371257461        0.54756168410321
C            7.11215532714624       -1.67270774395993        0.56825937507303
C            4.55502172529060       -0.44830630795679       -0.10827148222104
C            3.51970020361421        0.16555197085182        0.60372256174668
C            2.29506291654617       -0.45053464971155        0.72538989264330
C            2.05423680121216       -1.70366255307650        0.15401236785581
C            0.73880416182096       -2.33714036066550        0.27134381755356
C            0.62278623434688       -3.73219622798988        0.42962339095241
C           -0.63968611934925       -4.31715278935720        0.49626954868937
C           -1.77471378668137       -3.55330720322204        0.43176125944924
C           -1.69214990853477       -2.13103720856016        0.31133403952142
C           -2.89681277284402       -1.41034917207533        0.24224423322249
N           -4.07807510395412       -2.01497843864495        0.00122438816886
C           -4.98368617937913       -1.05908110583811       -0.12449617635123
C           -6.36635683976707       -1.21060899890323       -0.44242453357174
C           -6.90105904346870       -2.47028113150627       -0.71648101388086
C           -8.23249368623163       -2.60850097889934       -1.05679783713378
C           -9.03022777944685       -1.47575384969208       -1.13101877756183
C           -8.51128126897152       -0.22343387820947       -0.85645935834703
C           -7.16867113006289       -0.04539486250663       -0.49569065344425
C           -6.60079887618719        1.25103566842483       -0.17006804279358
C           -7.38660962730886        2.40189528244798       -0.12301211290438
C           -6.87395760356032        3.63869695316518        0.21539577057018
C           -5.52036361142478        3.76515508908445        0.54551323644359
C           -4.70581680101452        2.66899608514928        0.50933258027078
C           -5.19721357652184        1.38901721455389        0.14018765018679
C           -4.40830539934128        0.23693268912893        0.09285531935337
N           -3.06930320046450       -0.00413996250220        0.32041405010158
C           -2.07378915450852        0.91631800093155        0.68007713695566
C           -1.46229671846673        0.82638277249540        1.93190224804950
C           -0.46421384145750        1.71823429553686        2.27616769550427
C           -0.06386568316248        2.70217652083679        1.38305991439965
C           -0.67067133897175        2.79316952749624        0.13823742301494
C           -1.67143342184025        1.90897882439002       -0.21672038444862
C           -0.40180045949736       -1.56154913082167        0.21560347524723
C            3.10035318421763       -2.32067544393987       -0.53719514855542
C            4.32572014106959       -1.70647279043901       -0.67331000845199
C            6.89091730946950        2.30124882566989        0.18556022523616
C            6.94914649683414        3.67387795345686        0.04024446525302
H            6.02295246047840        5.41466683522166       -0.84799685745305
H            4.17661129378356        4.13263472193755       -1.87351765745245
H            4.07046212223374        1.69127410942704       -1.61158805148205
H            7.91228226406445        0.61426384749260       -1.79109782325916
H            9.99002292360427       -0.70142138694492       -1.78581675315177
H           10.22854913984452       -2.64092044807827       -0.27492493953537
H            8.37427722053967       -3.24814797888170        1.23951253351140
H            6.30200318069214       -1.92244531073133        1.25157227715344
H            3.68877815111900        1.13846625144569        1.04537805193555
H            1.51066235177817        0.04799364063300        1.27395915889443
H            1.51042764226211       -4.33407076480415        0.52640987296105
H           -0.71765215539478       -5.38469873118600        0.61743812856765
H           -2.75519767603380       -3.99335873697098        0.48623794425630
H           -6.23754450629704       -3.31866881104855       -0.68224042697083
H           -8.63850178947135       -3.57765454168466       -1.30300662246299
H          -10.06494806356826       -1.56247295411376       -1.43738384089062
H           -9.16941964216943        0.62875803706192       -0.94938098314539
H           -8.43975061330197        2.34092669415046       -0.35451923926128
H           -7.52421552538767        4.50248450688643        0.24623888090420
H           -5.13044815538664        4.72366147142522        0.85851440855352
H           -3.67614070954243        2.76652187286741        0.80724887135236
H           -1.78072549345850        0.00977400269835        2.62384549359215
H           -0.00421761110162        1.59035096682270        3.28681217004595
H            0.71363291655002        3.36903508479980        1.72942360072614
H           -0.36134133570977        3.57222493790795       -0.48452490638512
H           -2.14688907803088        1.99909981290244       -1.14192722595359
H           -0.30378952199511       -0.50332661086673        0.01535213207061
H            2.93712834534145       -3.28261430019238       -0.99397030017710
H            5.11461222399027       -2.19390863930481       -1.22739019131136
H            7.64342504442769        1.79242844716510        0.73726224785609
H            7.75788792887585        4.23172030991004        0.45341690870682
