67
 xtb: 6.7.1 (edcfbbe)
C            2.56700363823831        1.06036405420838       -0.67692926608123
C            2.00964118824517        0.88880537356399        0.74047473708753
O            3.01303606268700        0.41700733744881        1.66714530176075
C            4.18154331082529        1.10955334964933        1.78567310966773
O            5.11337610732508        0.69774382516460        0.77169852835169
C            6.31327951357795        1.29335861561477        0.79336801377359
O            6.60795863287511        2.14594012562981        1.61198721455646
C            7.22055383834607        0.80527312532696       -0.26508038115392
C            6.83967009966282       -0.20664929257824       -1.15027988432596
C            7.72229196255721       -0.63307601571440       -2.12496986066839
C            8.98318330945147       -0.05795213044051       -2.22354488799237
C            9.36632181771362        0.94872303088666       -1.34487235488748
C            8.48947222289583        1.38090801153608       -0.36829697045137
C            1.40355269863852        2.21414577382173        1.25554952836459
C           -0.00875013687626        2.46828796393001        0.81689973214584
C           -0.86889599064378        1.48316994078825        0.55134493370848
C           -0.38784026383585        0.13027780445119        0.61925968873344
C            0.94837770042322       -0.17490534481510        0.71518246296985
C            1.06563972754512       -1.59040724151702        0.65580793623495
C            2.14148563095996       -2.47638200442196        0.72282975444187
C            1.88617231060297       -3.82788567253255        0.67008324205093
C            0.57979622813027       -4.31476412242549        0.57316171496522
C           -0.50322306309498       -3.46224338841216        0.50719850053764
C           -0.25381287960784       -2.09605023741069        0.52587920141041
N           -1.12860552229062       -1.02902368828077        0.49765815720758
C           -2.51936866223263       -1.10864986840369        0.40965159703126
C           -3.31954865394340       -0.37481986241362        1.28829927257605
C           -4.69594824547278       -0.46186284710706        1.20474226020078
C           -5.26986471177383       -1.28724343849978        0.25463344008599
S           -7.06164893916848       -1.37681775513281        0.15800547617575
O           -7.42029766394257       -2.40267376407922       -0.79772944316156
O           -7.59444670455678       -1.50581109170387        1.49516800885438
C           -7.53698734449062        0.22837642694422       -0.50311772571629
C           -8.10909254177502        1.17055271823203        0.32901245692923
C           -8.43790361909585        2.41433684339814       -0.18646336614190
C           -8.18604929583913        2.69695035071241       -1.52013261301048
C           -7.61115877668290        1.74162986260730       -2.34532952262995
C           -7.28088430968083        0.49716521971852       -1.83449221888185
C           -4.49186516672223       -2.01566754900659       -0.62525619708352
C           -3.11417421968444       -1.92628916522379       -0.55249129120633
H            1.77014994683045        1.34871829277542       -1.32839092130613
H            2.99932468065084        0.11224695882331       -1.01468583153438
H            3.35208445726190        1.81553049232118       -0.69177585673207
H            4.07322177760439        2.18279404132711        1.73085786277864
H            4.61030827572685        0.84531108361411        2.78632532805823
H            5.89527841776790       -0.71233126898851       -0.99553509874065
H            7.47138409460631       -1.48848195766168       -2.73216169745410
H            9.66994609833748       -0.39931932668050       -2.97640767385908
H           10.29887970227268        1.46804800940312       -1.49005539985986
H            8.70783474103603        2.24295352325367        0.25007128680975
H            2.04218767183961        3.04055703288835        0.96117034583622
H            1.42042791036502        2.16693794609883        2.36339472564738
H           -0.30822612944528        3.49530584669485        0.79598959542231
H           -1.88273437413721        1.67322959267682        0.26850646930367
H            3.14391296972030       -2.10916823930234        0.83632260341263
H            2.69906794867931       -4.54360719037526        0.71687808080842
H            0.40777634208000       -5.38912371984401        0.54793875026748
H           -1.51312586718059       -3.85274494238475        0.44839143306941
H           -2.85277040946568        0.23952177158530        2.04166019684159
H           -5.32935323189059        0.08231535233315        1.88301759781608
H           -8.29651890441523        0.91158201730602        1.35823384373902
H           -8.88763766321349        3.16287667142098        0.45462964823534
H           -8.43804052251057        3.67516426570524       -1.91573720842324
H           -7.41528141205655        1.97655743573494       -3.38161212290058
H           -6.83869073391871       -0.26220566533691       -2.45278407776935
H           -4.97979226767818       -2.63982623151240       -1.35833436636864
H           -2.49323765909585       -2.47168708100479       -1.24978137740995
