  53
 
 C         -6.2885029693        3.9138525455        0.4203855468
 C         -7.2329830474        2.9199883014        0.1691885667
 C         -6.8607430197        1.6016440736       -0.0218936198
 C         -5.5110419341        1.3111512359        0.0478013119
 C         -4.5384956487        2.3164215637        0.3039049590
 C         -4.9378283442        3.6325332072        0.4913556132
 N         -3.2659811251        1.7763216751        0.3269580446
 C         -3.4576775880        0.5071599336        0.0967610674
 N         -2.6678885133       -0.6052040427       -0.0186392788
 C         -1.2857298756       -0.6252895804        0.1129314543
 C         -0.5818226960        0.5526784911        0.3825676288
 C          0.7879710621        0.4741236423        0.5112587695
 C          1.4365622757       -0.7578991708        0.3733453106
 C          2.8937028365       -0.8857168040        0.5023063911
 C          3.4435571168       -1.9950808076        1.1594954889
 C          4.8080192527       -2.1590181078        1.3032138649
 C          5.6280778591       -1.1825188718        0.7656821623
 O          6.9897013411       -1.1587818011        0.7932392787
 C          7.3637296879       -0.0167537424        0.1448758315
 C          8.6590347303        0.4195260706       -0.0681259789
 C          8.8207572366        1.6122040935       -0.7518293200
 C          7.7264768731        2.3436192765       -1.2074114046
 C          6.4334060864        1.9062967499       -0.9940217642
 C          6.2468103686        0.7116750897       -0.3103279019
 C          5.1003813658       -0.0577390413        0.1000162749
 C          3.7282581402        0.0915536103       -0.0288890265
 C          0.6284424905       -1.8580780440        0.0987791800
 N         -0.6847882491       -1.8002516283       -0.0275137777
 C         -3.5232682831       -1.6836023849       -0.2800432218
 C         -3.2597015739       -3.0256197216       -0.4873475777
 C         -4.3370699215       -3.8645566989       -0.7301721589
 C         -5.6412660541       -3.3886487945       -0.7661940186
 C         -5.9197263195       -2.0467082814       -0.5603956064
 C         -4.8510697430       -1.2047839622       -0.3189398573
 N         -4.7796530841        0.1521651792       -0.0819931103
 H         -6.6243917828        4.9302606474        0.5632722206
 H         -8.2784897422        3.1850724134        0.1226553784
 H         -7.5937963294        0.8342539868       -0.2162634867
 H         -4.2073830944        4.4017763372        0.6861963197
 H         -1.1169162598        1.4820945657        0.4882533720
 H          1.3580100862        1.3624721829        0.7393689505
 H          2.7793506837       -2.7323559480        1.5837495792
 H          5.2240012237       -3.0121524516        1.8149784214
 H          9.5012713792       -0.1523800073        0.2876831595
 H          9.8180599733        1.9826142122       -0.9353066473
 H          7.8956202131        3.2692386270       -1.7369863083
 H          5.5866076589        2.4740397553       -1.3477057431
 H          3.3187897818        0.9408438198       -0.5534051265
 H          1.0548949976       -2.8418456727       -0.0467426192
 H         -2.2484306124       -3.3923814876       -0.4590463728
 H         -4.1533635863       -4.9149072374       -0.8952610517
 H         -6.4537147293       -4.0721963100       -0.9581062477
 H         -6.9297705945       -1.6711106862       -0.5876569197
