  107
 
 C          2.3789945206       -4.8220725446       -1.9002756988
 C          1.1230182374       -4.7913486705       -2.7895952264
 C         -0.0621142297       -5.3999770267       -2.0179578701
 C          1.3905816899       -5.6657470216       -4.0184221128
 C          0.7964191772       -3.3571582436       -3.1422207051
 C          0.6991329265       -2.8899268887       -4.4782965556
 C          0.3891679634       -1.5992668012       -4.7865148704
 C          0.1473612633       -0.6615371323       -3.7346309647
 C          0.2509915385       -1.1387485719       -2.3690421876
 C          0.5677920561       -2.4292753835       -2.0960502359
 C         -0.0093452574        0.0030058720       -1.4033496369
 C          1.2463417372        0.1769313263       -0.5759530719
 C          2.2677729254        1.0199077842       -1.0002448680
 C          3.4511248193        1.1110149386       -0.2938658633
 C          3.6393404816        0.3490872167        0.8553812987
 N          4.8422561689        0.4333539968        1.5741101530
 C          5.6379581785       -0.6323840040        1.9412533486
 C          5.4815224495       -1.9851737468        1.6717761014
 C          6.4491718069       -2.8528122315        2.1415279243
 C          7.5542628362       -2.3923123149        2.8550079709
 C          7.7263071874       -1.0451637518        3.1081145013
 C          6.7667633271       -0.1532725430        2.6469326121
 C          6.6316652734        1.2759385978        2.7084294820
 C          7.3969342910        2.2865970470        3.2755973445
 C          6.9551735786        3.5912057670        3.1689196656
 C          5.7616262360        3.8930807260        2.5157955702
 C          4.9835394892        2.9053273923        1.9423658616
 C          5.4319810534        1.5944694893        2.0293463137
 C          2.6236253614       -0.5016389419        1.2843350792
 C          1.4448762503       -0.5861870507        0.5713833598
 C         -1.2571387928       -0.1750604936       -0.5649624916
 C         -1.4448423678        0.5820804924        0.5881393553
 C         -2.6169411365        0.4939101607        1.3115798925
 C         -3.6367425033       -0.3544576658        0.8876831694
 N         -4.8330601075       -0.4421991374        1.6168996918
 C         -5.4199215828       -1.6055748615        2.0700553245
 C         -4.9723675989       -2.9160391872        1.9731065121
 C         -5.7467487896       -3.9066670145        2.5465983238
 C         -6.9357953689       -3.6080256524        3.2093550310
 C         -7.3764720853       -2.3039025472        3.3260285423
 C         -6.6148340801       -1.2904009278        2.7590453901
 C         -6.7499413633        0.1391521452        2.7061265674
 C         -7.7062298861        1.0287426529        3.1783811605
 C         -7.5357120043        2.3771615698        2.9310822044
 C         -6.4352929769        2.8412355906        2.2127186097
 C         -5.4709947227        1.9759237503        1.7318964710
 C         -5.6258338030        0.6217644306        1.9953379636
 C         -3.4592579971       -1.1105877553       -0.2671025910
 C         -2.2825388373       -1.0158406832       -0.9839902578
 C         -0.2787937955        1.1494243911       -2.3609717039
 C         -0.5943848064        2.4382691890       -2.0787576733
 C         -0.8333902180        3.3710644498       -3.1182352568
 C         -1.1591269210        4.8029487956       -2.7556023166
 C          0.0320194776        5.4098390053       -1.9919001682
 C         -1.4394890125        5.6828804260       -3.9776020165
 C         -2.4069742974        4.8271069310       -1.8547163694
 C         -0.7469461602        2.9107280741       -4.4574283114
 C         -0.4384160772        1.6219476406       -4.7748149310
 C         -0.1870139776        0.6790877081       -3.7297862735
 H          2.6469567767       -5.8511371449       -1.6695023302
 H          3.2153682620       -4.3527855234       -2.4149502244
 H          2.2162408350       -4.2951014445       -0.9643228118
 H         -0.2695766802       -4.8430368842       -1.1081541498
 H          0.1590152320       -6.4302652111       -1.7466057530
 H         -0.9579307249       -5.3898973485       -2.6360598386
 H          0.5167829841       -5.7138597621       -4.6644668664
 H          1.6252678814       -6.6790319391       -3.6977965948
 H          2.2366549288       -5.2895841369       -4.5894732662
 H          0.8789114318       -3.5786637569       -5.2883838156
 H          0.3303336203       -1.2719709594       -5.8138641794
 H          0.6375393986       -2.7548074544       -1.0691371917
 H          2.1355081557        1.6070319486       -1.8972303502
 H          4.2427738117        1.7593951879       -0.6395201319
 H          4.6375975685       -2.3476626944        1.1046771697
 H          6.3492930806       -3.9108528623        1.9473244399
 H          8.2885460962       -3.1020838212        3.2070429336
 H          8.5902196035       -0.6888057309        3.6491670588
 H          8.3153488870        2.0530433733        3.7933010267
 H          7.5368416634        4.3914982793        3.6025673051
 H          5.4356717141        4.9216330037        2.4600596685
 H          4.0533345868        3.1460044410        1.4502281121
 H          2.7596014283       -1.0819168515        2.1851260174
 H          0.6591302701       -1.2403367437        0.9202637133
 H         -0.6557072175        1.2342297602        0.9331356323
 H         -2.7445090532        1.0695238005        2.2165811251
 H         -4.0455615305       -3.1542492727        1.4734109383
 H         -5.4213870156       -4.9349698074        2.4832618253
 H         -7.5147205953       -4.4104814881        3.6426755487
 H         -8.2912889493       -2.0729241341        3.8512026982
 H         -8.5665168772        0.6696774741        3.7234014770
 H         -8.2674650292        3.0851734513        3.2918174226
 H         -6.3365429835        3.9002637232        2.0233756831
 H         -4.6308946514        2.3412434053        1.1609586542
 H         -4.2541157252       -1.7572059252       -0.6087066751
 H         -2.1584970378       -1.5984734276       -1.8850586284
 H         -0.6553308593        2.7586638244       -1.0496661527
 H          0.9221228708        5.4044442893       -2.6182848849
 H         -0.1883705794        6.4383682294       -1.7133617863
 H          0.2488559213        4.8487279120       -1.0868510684
 H         -0.5716646941        5.7359486037       -4.6312353311
 H         -2.2899494912        5.3078459749       -4.5428537741
 H         -1.6732593919        6.6940844011       -3.6498162848
 H         -3.2472566372        4.3589972986       -2.3640754168
 H         -2.2348044601        4.2957007022       -0.9229733549
 H         -2.6745109632        5.8545395146       -1.6163045441
 H         -0.9342794469        3.6033543158       -5.2624721235
 H         -0.3880247241        1.2999159359       -5.8042742958
