  42
 
 N          8.8853991200        1.0857762162        0.1228564995
 C          7.7403828217        1.0325702530        0.1500008411
 C          6.3267258076        0.9705873776        0.1949608381
 C          5.7114718340        2.2163346875        0.4578538373
 N          5.2517298483        3.2564205754        0.6069649340
 C          5.6785669572       -0.1858089349       -0.0921113247
 C          4.2541965474       -0.4091799247       -0.0607456264
 C          3.6668735029       -1.3017085375       -0.9724281099
 F          4.4722471132       -1.9052041884       -1.8713703874
 C          2.3174339398       -1.5563305576       -1.0202920253
 C          1.4583289846       -0.9260725773       -0.1159747853
 C          0.0217763423       -1.2143683476       -0.1380776684
 C         -0.3817032834       -2.5499616968       -0.1727285169
 C         -1.7124987802       -2.8999036659       -0.1164857767
 C         -2.7045273315       -1.9191954216       -0.0347747622
 C         -4.0874904294       -2.2519211283        0.0476641872
 C         -5.0377306575       -1.2903281109        0.1181931279
 C         -4.6890639986        0.0920864316        0.1044662503
 C         -5.6533934222        1.1000563751        0.1712291431
 C         -5.2863430135        2.4336409190        0.1492036541
 C         -3.9542499598        2.7939831415        0.0574033310
 C         -2.9563647904        1.8192175430       -0.0098061430
 C         -1.5763930725        2.1504790918       -0.1314515348
 C         -0.6209673665        1.1918552082       -0.1807084614
 C         -0.9502019045       -0.1941296787       -0.1004525926
 C         -2.3218209127       -0.5541479905       -0.0391574239
 C         -3.3200153382        0.4505246541        0.0194001624
 C          2.0108478650       -0.0742448351        0.8436763352
 C          3.3654139250        0.1680767077        0.8584607916
 F          3.8621212940        0.9279651843        1.8552797902
 H          6.2793644461       -1.0258028333       -0.4214378670
 H          1.9340872535       -2.2280108674       -1.7717789265
 H          0.3723578060       -3.3226018637       -0.2027881557
 H         -1.9981277605       -3.9415950853       -0.1234272710
 H         -4.3586080983       -3.2980614675        0.0527730212
 H         -6.0845550536       -1.5513214495        0.1822228471
 H         -6.6965372323        0.8264010901        0.2404019315
 H         -6.0465970641        3.1996411623        0.2014322483
 H         -3.6738444071        3.8373290358        0.0345482856
 H         -1.3054385590        3.1949412435       -0.1934242167
 H          0.4140000476        1.4733947045       -0.3025645524
 H          1.3931479798        0.3786195603        1.6029910716
