  88
 
 C          1.6321319753        1.1373406963        2.0301631866
 C          1.6596707631        0.8253494716        0.5308062936
 C          1.6148970424        2.1228371112       -0.2833912451
 C          0.5259082525       -0.0977103492        0.1400135100
 C         -0.8053181831        0.1299799007        0.2227601121
 C         -1.7227861313       -0.8766824093       -0.2178847287
 C         -3.1164817558       -0.7306465465       -0.2206263222
 N         -3.9542876913       -1.7763484275       -0.3023603544
 C         -5.1949157423       -1.3152088358       -0.1533236525
 C         -6.3367524788       -2.2131909777       -0.2248820566
 C         -7.5643558513       -1.8106094255       -0.7496433341
 C         -8.6188044527       -2.7015702371       -0.8111978843
 C         -8.4650440917       -4.0018633397       -0.3579823341
 C         -7.2414715251       -4.4154262071        0.1446183665
 C         -6.1830727933       -3.5308044034        0.2068874101
 C         -5.1798643707        0.0882923108        0.0116520859
 C         -6.2746667236        1.0083269536        0.2033304643
 C         -7.3085265726        0.6791009388        1.0903131097
 C         -8.3645480588        1.5432242177        1.2874146142
 C         -8.4188455747        2.7511327057        0.6065647464
 C         -7.4068558387        3.0831807859       -0.2811827563
 C         -6.3437543642        2.2270265162       -0.4829056072
 N         -3.8531760426        0.4514620767       -0.0608509974
 C         -3.3688916740        1.7636007764       -0.0512651030
 C         -2.5402647741        2.2059120091       -1.0843134043
 C         -2.0667247442        3.5026106208       -1.0781401817
 C         -2.4186275224        4.3720043234       -0.0563408467
 C         -3.2486155671        3.9358505231        0.9648964785
 C         -3.7251864709        2.6393611474        0.9733804121
 C         -1.1882314027       -2.1362433039       -0.6508849458
 C          0.1474455321       -2.3589295688       -0.7397583959
 C          1.0497233501       -1.3313685076       -0.3669908195
 C          2.4539902715       -1.2730646683       -0.3523503425
 C          3.4342553737       -2.2069133975       -0.7442089351
 C          4.7587954515       -1.8820975909       -0.6199682479
 C          5.1618688040       -0.6326807020       -0.1101091887
 N          6.5140779676       -0.3209360899       -0.0023829149
 C          6.9500676301        0.9875188075       -0.2273889423
 C          7.9903728733        1.5282324424        0.5309361762
 C          8.4133700877        2.8230637902        0.3062774798
 C          7.8071508118        3.6014968398       -0.6673029999
 C          6.7719676055        3.0705525675       -1.4209255796
 C          6.3450386080        1.7750097064       -1.2093288718
 C          7.4388436174       -1.3148604081        0.3309304228
 C          8.7052365487       -1.3299623245       -0.2565427278
 C          9.6124488980       -2.3162740530        0.0753431498
 C          9.2748999326       -3.3027004523        0.9886850577
 C          8.0178841642       -3.2935140789        1.5727691879
 C          7.1045976829       -2.3092797999        1.2520980379
 C          4.1857271859        0.3078161917        0.2855668653
 C          2.8669228955       -0.0086409416        0.1654344252
 H          2.4895988752        1.7469407560        2.3066721753
 H          0.7230458215        1.6776818602        2.2842456107
 H          1.6600981997        0.2145902711        2.6058116845
 H          0.7011730098        2.6719408906       -0.0658496416
 H          2.4689431248        2.7520999558       -0.0420981517
 H          1.6380736536        1.8974756112       -1.3476448023
 H         -1.1768008918        1.0432401602        0.6585398613
 H         -7.6864354817       -0.8056589304       -1.1252603723
 H         -9.5661176836       -2.3807367029       -1.2200720208
 H         -9.2943284145       -4.6926246531       -0.4043000639
 H         -7.1149186356       -5.4318566068        0.4884751426
 H         -5.2225046696       -3.8372885523        0.5911943266
 H         -7.2611221593       -0.2554617969        1.6298283423
 H         -9.1498680808        1.2784911018        1.9803908626
 H         -9.2460304827        3.4268315579        0.7643587003
 H         -7.4494159752        4.0162765719       -0.8241369733
 H         -5.5757158506        2.4854093182       -1.1969653735
 H         -2.2729808452        1.5233774804       -1.8773222073
 H         -1.4245195863        3.8395975008       -1.8784344800
 H         -2.0472940552        5.3856064637       -0.0565481199
 H         -3.5222584886        4.6088062362        1.7638914945
 H         -4.3633275488        2.2934696613        1.7727813636
 H         -1.9040797211       -2.8927211338       -0.9305479770
 H          0.5304668322       -3.3056156299       -1.0910199232
 H          3.1398118565       -3.1614679574       -1.1524853536
 H          5.5204113597       -2.5806852257       -0.9359379310
 H          8.4546210926        0.9280117296        1.2997175067
 H          9.2168348616        3.2309611312        0.9016245408
 H          8.1392862367        4.6141642248       -0.8375562332
 H          6.2986892236        3.6681609106       -2.1859727439
 H          5.5476791853        1.3572509390       -1.8060195156
 H          8.9647472683       -0.5694632175       -0.9784561613
 H         10.5875946055       -2.3201581309       -0.3887958020
 H          9.9864524536       -4.0731706325        1.2432732201
 H          7.7495600265       -4.0548896525        2.2900664475
 H          6.1294235677       -2.2944436733        1.7160415622
 H          4.5026529256        1.2566286738        0.6940615516
