64
 xtb: 6.7.1 (edcfbbe)
O            6.65251683999263       -2.47163057704467       -1.16769401962990
S            6.18111530693173       -1.82510537750893        0.05328684312509
O            6.64455484397127       -2.38949778472975        1.28669034513689
C            6.44501479683557       -0.05148715324248       -0.01791562781215
C            7.63828997384032        0.63063571546744       -0.03511695796439
C            7.60094453631867        2.02062082181271       -0.07650583191305
C            6.38429620237854        2.68600598805127       -0.09914088383390
C            5.18662450815126        1.98741284421471       -0.08111385205233
C            5.21146744249847        0.59715575330049       -0.03958915651665
C            4.05972786129661       -0.30638805870260       -0.01414540659413
C            2.71750428442370        0.05224779378403       -0.02205099219028
C            1.74771489591972       -0.94597537487056        0.01012310089444
N            0.37209460319071       -0.58614684975898        0.00702793848090
C           -0.29421693285844       -0.46988643681992        1.21913690942911
C            0.39894253110416       -0.63625506345850        2.42106786200012
C           -0.25197130885032       -0.52495308757045        3.63354713070605
C           -1.60668586743513       -0.24206767433939        3.67413063567748
C           -2.29607049134332       -0.06871578284982        2.48799344648900
C           -1.65962161020701       -0.17676475923387        1.25992666159526
C           -2.46865084472216        0.03130278145234        0.00126838197531
C           -3.67851069663346       -0.88423996939065       -0.01374741861417
C           -3.70525319456706       -2.26149322224907       -0.03052831954985
C           -4.93790340692458       -2.90159095737450       -0.04183157952486
C           -6.11674017724391       -2.17106241863753       -0.03609060500731
C           -6.09461423958395       -0.78498130540038       -0.01915624875234
C           -4.86782660286569       -0.14133927707434       -0.00825908723455
C           -4.52806329761214        1.27435695013006        0.00833542883476
C           -5.32944049685899        2.40449858844267        0.01760877289546
C           -4.72050972565746        3.64976901865821        0.03138224824646
C           -3.33859606928444        3.76621379264613        0.03579480108492
C           -2.53044878238255        2.63669714677603        0.02667577637758
C           -3.13125017460887        1.39704448930794        0.01348110339629
C           -1.64873193596695       -0.14865753821990       -1.25452727982134
C           -2.27531474305171       -0.01415455393577       -2.48499388185046
C           -1.57702767114572       -0.16564507105014       -3.66896022036879
C           -0.22459970284365       -0.45866982425028       -3.62343881116518
C            0.41620452360718       -0.59766899190468       -2.40844987001309
C           -0.28414182956116       -0.44486996802080       -1.20891810762568
C            2.10633157526414       -2.29158054168254        0.04910548277990
C            3.44616407414908       -2.65528539161051        0.05685134645768
C            4.39426820835498       -1.65945262555117        0.02494518794498
H            8.57125548522741        0.08906255240229       -0.00494764403680
H            8.52362161914929        2.57975380388856       -0.02651123989286
H            6.36849029868632        3.76538583524767       -0.03839561379448
H            4.24873542514367        2.51917916915937       -0.02891927915220
H            2.41356468531254        1.08701515361916       -0.01494156791156
H            1.46044014149120       -0.84798849092695        2.39734642127727
H            0.31652902948889       -0.63191614550574        4.54495171083424
H           -2.10793837387957       -0.12009065647516        4.61781599863825
H           -3.34513621567106        0.17674484687907        2.50806993578008
H           -2.78796673065643       -2.83269064575800       -0.00971340670856
H           -4.97872520380188       -3.98123022642129       -0.01539313053896
H           -7.06470133251775       -2.68994487789492       -0.01256797613841
H           -7.01569641769811       -0.22074023234967       -0.00425006926881
H           -6.40617923980780        2.31935974990215        0.00380353011132
H           -5.33008694024004        4.54209190136229        0.01073123053355
H           -2.88565088037428        4.74707564352424        0.01293689426542
H           -1.45395253629352        2.72922640926326        0.00847724973941
H           -3.33906115559010        0.19271879860235       -2.50824070205605
H           -2.09722329109388       -0.09279214451446       -4.61689426202151
H            0.32591138442181       -0.61034381401079       -4.54145381240704
H            1.46454343043021       -0.84096930891705       -2.39243953940233
H            1.33484342502629       -3.04618566729368        0.02199303919121
H            3.74684434624209       -3.69108006823063        0.02530790503559
