  91
 
 N        -10.0227980966        2.5768642253        0.8015663797
 C         -9.0730407677        1.9808449653        0.5133476318
 C         -7.9207920318        1.2844144788        0.1980826279
 C         -6.8818602307        1.8213025544       -0.6410650207
 C         -7.0715905190        3.0556090641       -1.4084122292
 C         -5.9698518307        3.8845272004       -1.6271915559
 C         -6.1089126261        5.0527350499       -2.3487128429
 C         -7.3437245832        5.4064722871       -2.8696627274
 C         -8.4366141130        4.5789887536       -2.6719283605
 C         -8.3066118510        3.4096204388       -1.9463070510
 N         -5.7337793293        1.2291231457       -0.7449434813
 C         -5.4347516627        0.0772292054       -0.1073357575
 C         -4.1577159947       -0.5235442388       -0.2395214772
 C         -3.1589689935        0.0711518627       -1.0367889302
 C         -1.9224834435       -0.5082771717       -1.1600603473
 C         -1.6314588522       -1.7011664067       -0.4892314265
 N         -0.3662165773       -2.2916278819       -0.6173985595
 C         -0.1223227696       -3.6091799700       -0.9488988056
 C         -1.0197889692       -4.6213220669       -1.2596724563
 C         -0.5040687925       -5.8633799730       -1.5797548354
 C          0.8686731348       -6.0972031698       -1.6012341965
 C          1.7681336424       -5.0859270523       -1.3175434195
 C          1.2744670137       -3.8313472129       -0.9932080686
 C          1.8947039299       -2.5733159957       -0.6753257058
 C          3.2107360539       -2.1647303770       -0.5623531492
 C          3.4876159143       -0.8458782103       -0.2068371928
 C          4.8733003298       -0.3834864090       -0.0871853940
 C          5.8443316951       -0.8329052545       -0.9963618917
 C          7.1567336335       -0.4168264866       -0.9354381692
 C          7.5124005248        0.4767220130        0.0670493942
 C          6.5569158182        0.9188082520        1.0128915190
 C          5.2419499782        0.4955938986        0.9275881437
 C          7.2582538806        1.7788753589        1.9269487384
 C          6.8674092827        2.5141230656        3.0371076184
 C          7.8152002729        3.2767492241        3.6917713850
 C          9.1325891225        3.3232680214        3.2426317531
 C          9.5451982465        2.6001060537        2.1391096856
 C          8.6031026312        1.8134946623        1.4926767183
 N          8.7403083447        1.0214509300        0.3682446741
 C          9.9285510992        0.8132108047       -0.3474906699
 C         11.0872183169        0.4263794388        0.3194466730
 C         12.2570247454        0.2277828881       -0.3901999326
 C         12.2793106276        0.4028171451       -1.7639901197
 C         11.1254017184        0.7828858186       -2.4291915906
 C          9.9529491855        0.9931193196       -1.7274245195
 C          2.4260785090        0.0387660930        0.0445447061
 C          1.1079428536       -0.3442388710       -0.0713440368
 C          0.8387270386       -1.6551444548       -0.4500724172
 C         -2.6132747473       -2.3017007864        0.3061920182
 C         -3.8524696544       -1.7272257504        0.4273516508
 N         -6.4014542433       -0.4949653721        0.6426079794
 C         -7.5806026880        0.0200989560        0.7953138722
 C         -8.5399974483       -0.7263030379        1.6145276039
 C         -9.9047696284       -0.7224233138        1.3366574209
 C        -10.7741545907       -1.4523131488        2.1254873551
 C        -10.2972827465       -2.1903791607        3.1960428289
 C         -8.9385551619       -2.2085748901        3.4695900437
 C         -8.0633934493       -1.4866375810        2.6835776556
 H         -5.0134389593        3.6026751844       -1.2128694057
 H         -5.2521113764        5.6919263304       -2.5049693247
 H         -7.4526617680        6.3226397350       -3.4309609366
 H         -9.3982705413        4.8445724408       -3.0849386747
 H         -9.1623415603        2.7659450729       -1.8141515163
 H         -3.3962910230        0.9844883145       -1.5605129472
 H         -1.1699992380       -0.0643192141       -1.7956645177
 H         -2.0839096216       -4.4423190603       -1.2637810596
 H         -1.1807634573       -6.6689952674       -1.8226406424
 H          1.2324851862       -7.0820983654       -1.8530503478
 H          2.8322656084       -5.2648330779       -1.3500805457
 H          4.0134394520       -2.8695464334       -0.7174200861
 H          5.5459548498       -1.5084509938       -1.7839913139
 H          7.8852141404       -0.7821004006       -1.6434414752
 H          4.5193524823        0.8199174001        1.6607254578
 H          5.8429002268        2.4904031153        3.3761718366
 H          7.5329280231        3.8539858381        4.5593857700
 H          9.8475059093        3.9409561039        3.7655462370
 H         10.5642088149        2.6570714396        1.7874298347
 H         11.0596061624        0.2692582785        1.3873783081
 H         13.1534061535       -0.0727802814        0.1315032788
 H         13.1937445359        0.2435192264       -2.3148803570
 H         11.1396707555        0.9246921415       -3.4995767471
 H          9.0567813884        1.3116094994       -2.2387431764
 H          2.6532703409        1.0591422567        0.3145852683
 H          0.3085946509        0.3515381612        0.1323083854
 H         -2.3754361873       -3.2095392086        0.8413792496
 H         -4.6148816015       -2.1817348867        1.0412702457
 H        -10.2870144468       -0.1648866465        0.4957040275
 H        -11.8304471732       -1.4435249447        1.9017491010
 H        -10.9817894024       -2.7527439200        3.8136828305
 H         -8.5612040677       -2.7872355348        4.3001260145
 H         -7.0038602283       -1.4903678939        2.8913102473
