  68
 
 C          2.6732413353       -5.3720926950       -1.0263133468
 C          4.0276311270       -5.3425383954       -0.7079821822
 C          4.6518351581       -4.1562565441       -0.3790132753
 C          3.9158743758       -2.9730652299       -0.3581634733
 C          2.5494518004       -3.0240468225       -0.6794249559
 C          1.9230643713       -4.2102287076       -1.0194480089
 S          1.7744553169       -1.4484504993       -0.5949105514
 C          3.2933843985       -0.7120833061       -0.1388382626
 C          4.3541655557       -1.6347952378       -0.0577449852
 C          5.6494176475       -1.2003989442        0.2451619613
 C          5.9190212742        0.1404970112        0.4222213039
 C          4.8816118002        1.0630581417        0.3233895009
 C          4.8363502170        2.4990361792        0.3774918938
 C          5.7983218012        3.4811285149        0.5716018639
 C          5.4021293194        4.8065400489        0.5542076264
 C          4.0710262657        5.1601791725        0.3446034377
 C          3.0943346811        4.1989460278        0.1512349279
 C          3.4889181986        2.8713318161        0.1653467242
 N          2.7187265209        1.7299849689        0.0090106270
 C          1.3372867252        1.6990649692       -0.0459569889
 C          0.6106106751        0.9281839007        0.8404628322
 N         -0.7178803084        0.9509033281        0.9006054859
 C         -1.3552485959        1.7608211485        0.0015730272
 N         -2.7342411622        1.7656848880       -0.0054057262
 C         -3.5242933228        2.8931195687       -0.1805423133
 C         -3.1587850688        4.2298607019       -0.2395702398
 C         -4.1629154544        5.1695263553       -0.3982149409
 C         -5.5011486097        4.7919776703       -0.4864093175
 C         -5.8748104689        3.4642759628       -0.3926479113
 C         -4.8838575854        2.5049686010       -0.2279445903
 C         -4.9119499791        1.0806864634       -0.0583210952
 C         -5.9578006994        0.1633308501       -0.0279187846
 C         -5.6722890657       -1.1754390815        0.1292006274
 C         -4.3502669128       -1.6100944507        0.2699820651
 C         -3.8889579406       -2.9635031379        0.4236294432
 C         -4.6264550865       -4.1447456060        0.4936349850
 C         -3.9704241719       -5.3498565317        0.6396842991
 C         -2.5819162101       -5.4011167133        0.7296546947
 C         -1.8310362922       -4.2414836504        0.6752265151
 C         -2.4893499304       -3.0344921537        0.5132389098
 S         -1.7247696687       -1.4537532806        0.4505510072
 C         -3.2804749991       -0.6877315952        0.2614874256
 C         -3.5633052031        0.6625755799        0.0884475446
 C         -0.6268959294        2.5183503185       -0.8954680985
 N          0.7030362432        2.5224916449       -0.9314239509
 C          3.5522396876        0.6342132723        0.0802116225
 H          2.2017936237       -6.3084734466       -1.2839203259
 H          4.5964721741       -6.2601670874       -0.7212977129
 H          5.7036183440       -4.1387519299       -0.1385135766
 H          0.8741529684       -4.2190489054       -1.2733001657
 H          6.4434209027       -1.9269944869        0.3137079575
 H          6.9242970390        0.4775539471        0.6197583249
 H          6.8313619930        3.2132318197        0.7307274727
 H          6.1359128998        5.5842629370        0.7037607274
 H          3.7949017198        6.2037971242        0.3348962925
 H          2.0622849216        4.4648140537       -0.0165195927
 H          1.1105355600        0.3457035727        1.6006174492
 H         -2.1278090753        4.5355282637       -0.1462980165
 H         -3.9018719076        6.2158060495       -0.4468653388
 H         -6.2561238062        5.5528726266       -0.6146128443
 H         -6.9134746816        3.1756556566       -0.4365855798
 H         -6.9761619815        0.5020564302       -0.1351948089
 H         -6.4679355481       -1.9035267565        0.1394624617
 H         -5.7036455051       -4.1118157078        0.4356040061
 H         -4.5398143097       -6.2661708893        0.6885507037
 H         -2.0861581543       -6.3531756536        0.8462306082
 H         -0.7551492980       -4.2672836275        0.7565571299
 H         -1.1227785947        3.0834818757       -1.6716759925
