42

N      8.854257    1.214417   -0.075212
C      7.698756    1.138795   -0.000876
C      6.282605    1.017590    0.083618
C      5.518402    2.186935    0.362946
N      4.879131    3.131670    0.577068
C      5.711845   -0.186109   -0.125874
C      4.268888   -0.461171   -0.073442
C      3.570465   -0.785266   -1.237041
F      4.217899   -0.844992   -2.410359
C      2.200741   -1.043889   -1.214037
C      1.489781   -0.987048   -0.006525
C      0.043677   -1.252847    0.026183
C     -0.381633   -2.589269    0.107733
C     -1.736259   -2.911135    0.146053
C     -2.705463   -1.905381    0.103493
C     -4.068334   -2.226807    0.142921
C     -5.039862   -1.226302    0.100440
C     -4.672246    0.121066    0.016995
C     -5.641280    1.134279   -0.026473
C     -5.265037    2.473411   -0.109784
C     -3.915068    2.816103   -0.150942
C     -2.924543    1.823731   -0.109101
C     -1.568323    2.154529   -0.150489
C     -0.590718    1.157265   -0.107944
C     -0.926456   -0.211612   -0.020436
C     -2.304798   -0.550195    0.019661
C     -3.299359    0.464107   -0.024101
C      2.188106   -0.677804    1.169645
C      3.557416   -0.421294    1.127391
F      4.194602   -0.133239    2.272147
H      6.324153   -1.052685   -0.374222
H      1.692812   -1.282317   -2.145764
H      0.349822   -3.394754    0.145122
H     -2.026620   -3.957588    0.210672
H     -4.389644   -3.264263    0.207587
H     -6.089186   -1.511077    0.133175
H     -6.700068    0.886763    0.004480
H     -6.024219    3.250516   -0.142660
H     -3.640676    3.866774   -0.216000
H     -1.254263    3.194169   -0.216350
H      0.449698    1.473939   -0.145040
H      1.671000   -0.629013    2.125339
