  58
 
 O          6.4714781122       -0.7072284187       -2.7185115711
 S          6.0984297664       -1.1994006963       -1.4118999372
 O          6.4188092053       -2.5774628002       -1.1402310272
 C          6.8693597377       -0.1520298159       -0.1756045572
 C          7.9581568353        0.6349964805       -0.5061162585
 C          8.5372282675        1.4388470411        0.4654499077
 C          8.0204653796        1.4593025719        1.7525161889
 C          6.9206411962        0.6772487000        2.0755862835
 C          6.3540741580       -0.1309671746        1.1060232175
 S          4.9259096403       -1.1456923034        1.4947429387
 O          4.2906976187       -0.5977056309        2.6716429945
 O          5.3215537079       -2.5281886718        1.5780431147
 C          3.8263972153       -0.9103900248        0.0994267688
 C          2.4806444362       -0.7015446345        0.3125586121
 C          1.6159613642       -0.5122277647       -0.7718794284
 C          0.1802538115       -0.3233790717       -0.5578886665
 C         -0.5634326916        0.5422569343       -1.3634658643
 C         -1.9163234427        0.7094409649       -1.1679676279
 C         -2.5845045451        0.0010327346       -0.1638387809
 N         -3.9522062123        0.1517925288        0.0256578534
 C         -4.7332726790       -0.9347163967        0.4519138199
 C         -4.4953938943       -2.2149219461       -0.0469619441
 C         -5.2733542676       -3.2784221251        0.3692954038
 C         -6.3017954117       -3.0822916036        1.2770703601
 C         -6.5449047543       -1.8108727340        1.7713851128
 C         -5.7667025921       -0.7424709713        1.3674773490
 C         -4.5744162808        1.3862182869       -0.2204067062
 C         -3.9500064488        2.5779988289        0.1459589091
 C         -4.5692697488        3.7895481410       -0.0956916982
 C         -5.8186590433        3.8320719130       -0.6935719640
 C         -6.4457596501        2.6497824521       -1.0526402870
 C         -5.8304578240        1.4336526094       -0.8233682328
 C         -1.8425259468       -0.8666181331        0.6447068608
 C         -0.4870396470       -1.0170333224        0.4546476540
 C          2.1596300719       -0.5164716903       -2.0612332261
 C          3.5127310665       -0.7154154129       -2.2659986861
 C          4.3480853712       -0.9234992761       -1.1808294654
 H          8.3237901428        0.6061770265       -1.5204924072
 H          9.3889924842        2.0512685933        0.2136422593
 H          8.4687194119        2.0875592066        2.5063821392
 H          6.4827254719        0.6818692279        3.0613123486
 H          2.1262858745       -0.6658614041        1.3306653297
 H         -0.0705169816        1.1074680198       -2.1393292384
 H         -2.4726696260        1.3847203010       -1.8006230606
 H         -3.7016082139       -2.3680408101       -0.7634938595
 H         -5.0811623157       -4.2652358242       -0.0260349162
 H         -6.9103876967       -3.9149064269        1.5964853904
 H         -7.3423991069       -1.6503389648        2.4821279932
 H         -5.9534888277        0.2470137166        1.7585740328
 H         -2.9817163776        2.5460933285        0.6238321287
 H         -4.0766537291        4.7061766516        0.1943007870
 H         -6.3010128081        4.7803619724       -0.8772875056
 H         -7.4182871533        2.6739955846       -1.5223181397
 H         -6.3177647266        0.5133015795       -1.1105391620
 H         -2.3406236676       -1.4172580844        1.4287022461
 H          0.0616545661       -1.7008908608        1.0844024506
 H          1.5103472209       -0.3822663586       -2.9121722760
 H          3.9452991770       -0.7164470430       -3.2541339609
