101
 xtb: 6.7.1 (edcfbbe)
C           -9.74333952075290        3.29473237895174       -3.77401611663652
C          -10.19890726519425        2.00498162859352       -3.55483608264681
C           -9.54262170442403        1.17741631519391       -2.66216204839463
C           -8.41594771680582        1.62532275314675       -1.97575195007287
C           -7.71719007952828        0.74571506120669       -1.02405684444556
C           -8.43779221392843       -0.06840532239598       -0.15440287034833
C           -7.78674021204070       -0.91096945265699        0.74252063925695
C           -8.55826936880431       -1.76172116673493        1.66368906534266
C           -8.16655390597562       -3.07563027811971        1.91209555197170
C           -8.89508121039001       -3.87752465608888        2.77152950387417
C          -10.02369333371254       -3.37916441091172        3.40138159484964
C          -10.42008287231688       -2.07305543068702        3.16481164573112
C           -9.69525527913033       -1.27110681273268        2.30221240869459
C           -6.39710102505767       -0.93850181544675        0.75667073754479
C           -5.65334016844337       -0.12751206921079       -0.10045343957106
C           -4.18934240673208       -0.16085668665587       -0.07504736245834
C           -3.50438106850996       -1.38497340476827       -0.32274940140717
C           -4.19421788278039       -2.55952782135991       -0.64922385417031
C           -3.53468291952874       -3.77613615350319       -0.78082562464220
C           -2.17142412105415       -3.84153960816182       -0.57495508591606
C           -1.45387895450755       -2.67850614466266       -0.30834376065211
C           -2.08003914805379       -1.43047661259430       -0.24261150628574
C           -1.33832006010370       -0.22109766587084       -0.04137708684487
C            0.10903202797963       -0.24961312793728       -0.03897778053281
C            0.83219785007411       -0.86969217409675       -1.07434873875373
C            2.20387770986597       -0.86709488886400       -1.08268140855741
C            2.93617478255798       -0.26144050330887       -0.04878244673519
C            4.37537433462134       -0.30975383576203       -0.12765875855283
N            5.01114080623184       -1.23170169468371       -0.82288695880801
C            6.33152599746762       -0.98432192419485       -0.66300093818835
C            7.42835285964037       -1.71769865934048       -1.20235010550242
C            7.26381856831637       -2.84294478979423       -2.00307923585129
C            8.36942656223306       -3.52017875199396       -2.49110950041404
C            9.64313656589047       -3.08372156121922       -2.18626328410390
C            9.84592720118283       -1.95332648649621       -1.38677781200808
C           11.15583428009040       -1.48891221000004       -1.07211054452148
C           11.33919620923633       -0.38163328953054       -0.31718682533886
C           10.23326588363187        0.36144039469128        0.19130850223030
C           10.43286658986692        1.52340049643958        0.94435518847500
C            9.35745509521749        2.25103391114309        1.40884908481206
C            8.06227276351250        1.82993344762247        1.15907773382196
C            7.81374316433859        0.66139198616266        0.43760620500116
C            8.91546373153930       -0.08245409974073       -0.08210135148159
C            8.72621421730613       -1.24692372979510       -0.88040816142097
C            6.52018096148928        0.14204611840608        0.14685652098195
N            5.25469102331842        0.55916928956431        0.48939077451557
C            4.89623746118923        1.69595745112370        1.24828900440039
C            5.11482782744828        1.71579676900366        2.62298276186401
C            4.74259754047766        2.82701223332898        3.35809078150452
C            4.15161891418905        3.91247351337053        2.73006157040763
C            3.93443713743838        3.88952217225673        1.36201868814737
C            4.30589768300754        2.78434699077412        0.61644657700293
C            2.22284263689935        0.31685200185618        1.00904275547364
C            0.84867137158720        0.33563676238644        1.00234435987350
C           -2.03224156285843        1.01721946176938        0.15495936695265
C           -1.35717988710647        2.23775588042753        0.25045041029940
C           -2.03223114125214        3.42676581003214        0.51293998456877
C           -3.40196915164395        3.41691261376055        0.68237754550837
C           -4.10774133290618        2.23062249397602        0.51853770687630
C           -3.45891877445560        1.03114249400468        0.19896462419051
C           -6.32818132346291        0.71482442985166       -0.98408238794878
C           -7.96385551778523        2.92273719147602       -2.20737587397261
C           -8.62411779567985        3.75052112493299       -3.09692187680735
H          -10.25064016792558        3.97498074235450       -4.44308652840342
H          -11.06211497104377        1.67246389257100       -4.07566369108373
H           -9.88935678402418        0.18553832007613       -2.51091847087777
H           -9.51643333413772       -0.04335574688619       -0.17804302940382
H           -7.29849275526164       -3.48552869756299        1.38942218134285
H           -8.58866551573110       -4.91714415679547        2.91149911711796
H          -10.59948224198635       -4.03384942551683        4.03955346683049
H          -11.30290102318197       -1.70147355953904        3.63959808385366
H          -10.00341566528371       -0.26155713817692        2.13205977887112
H           -5.88142364586893       -1.57181903901922        1.46390073268688
H           -5.26164525489960       -2.51624969540387       -0.80994246235798
H           -4.09731894851971       -4.66344271206464       -1.03848670537058
H           -1.65411521535075       -4.78816839452719       -0.63600300302402
H           -0.39186930072689       -2.75365544582189       -0.13772793441593
H            0.29093685779761       -1.30973455945948       -1.89649947868155
H            2.75114521594831       -1.32752126982782       -1.88917448704674
H            6.26513839608586       -3.20201109806766       -2.18702139733742
H            8.23870564910981       -4.43437904045434       -3.05205097648631
H           10.50912704194483       -3.64209804027440       -2.52124065029566
H           12.00240575375386       -2.04995697852082       -1.43986720221836
H           12.33373747711710       -0.01094076892098       -0.10429127293714
H           11.43871742374915        1.88438362816924        1.10134629946375
H            9.51431947710448        3.19488450093155        1.91649982770686
H            7.23450994056829        2.44217862061727        1.48907328773400
H            5.58605302984279        0.88544682995390        3.08995036769887
H            4.91932383024996        2.87102709425308        4.40249387500362
H            3.85082136158115        4.79057787170730        3.27843448171142
H            3.45341732238404        4.72863509951544        0.84315484971395
H            4.12211006055328        2.74166482837417       -0.46708077314978
H            2.74769769337251        0.72276162110590        1.86237150122667
H            0.32236716523154        0.75418288762498        1.85026465506787
H           -0.28570280076586        2.26254797284908        0.12175801256084
H           -1.47260550586847        4.34423947988147        0.61057385781286
H           -3.92912502411913        4.32174322636969        0.94343555266951
H           -5.17793198471367        2.22957323099454        0.65497384485516
H           -5.75381373514403        1.32610631289421       -1.66541795426350
H           -7.09569605956835        3.30155146164122       -1.64756064386694
H           -8.25931391078277        4.78048932940705       -3.22616444710680
