83

C     12.145901   -0.016756   -0.051121
C     11.734979   -0.061401    1.279575
C     10.407028    0.217082    1.609794
C      9.474005    0.529915    0.611436
C      8.090984    0.825981    0.989601
N      7.766403    1.728197    1.896317
N      6.409757    1.856666    1.918805
C      5.888783    0.983924    1.077392
C      4.448567    0.754320    0.949712
C      3.890092   -0.522619    1.079250
C      2.508064   -0.709592    0.959350
C      1.646562    0.373735    0.725409
C      0.193768    0.174178    0.601615
C     -0.334625   -0.749616   -0.313881
C     -1.715881   -0.938430   -0.432050
C     -2.605540   -0.198667    0.354283
C     -4.047310   -0.426535    0.214831
N     -4.600313   -1.600993    0.436260
C     -5.953903   -1.426146    0.295910
C     -6.986030   -2.371543    0.494149
C     -6.625432   -3.653459    0.961562
C     -7.598802   -4.616924    1.199653
C     -8.932738   -4.308747    0.972553
C     -9.292136   -3.039703    0.500202
C     -8.333320   -2.025377    0.238843
C     -8.631481   -0.723323   -0.282442
C     -9.944277   -0.316273   -0.628333
C    -10.220723    0.928217   -1.200597
C     -9.187142    1.809382   -1.466091
C     -7.881802    1.459826   -1.130267
C     -7.587535    0.225011   -0.502956
C     -6.256706   -0.130649   -0.115272
N     -5.025090    0.532803   -0.060181
C     -4.800753    1.933613   -0.149342
C     -5.571636    2.804752    0.632786
C     -5.333504    4.178362    0.577390
C     -4.329011    4.680940   -0.249475
C     -3.557131    3.812742   -1.022053
C     -3.786651    2.437034   -0.972557
C     -2.088194    0.704466    1.289179
C     -0.706213    0.894061    1.403462
C      2.212975    1.653906    0.624167
C      3.594542    1.843070    0.740714
N      6.922821    0.301650    0.434284
C      6.809497   -0.706614   -0.566425
C      7.669472   -1.813381   -0.555314
C      7.553497   -2.799991   -1.536922
C      6.583711   -2.688894   -2.531065
C      5.726569   -1.590681   -2.547531
C      5.836110   -0.599722   -1.569622
C      9.905213    0.596441   -0.721162
C     11.233608    0.316313   -1.050749
H     13.180887   -0.228569   -0.307682
H     12.448864   -0.303953    2.062752
H     10.100752    0.195151    2.654389
H      4.518432   -1.386687    1.284341
H      2.103479   -1.714190    1.071444
H      0.329108   -1.331951   -0.949901
H     -2.097204   -1.671417   -1.140673
H     -5.579683   -3.894221    1.146833
H     -7.314999   -5.600497    1.563291
H     -9.701410   -5.054868    1.157417
H    -10.351038   -2.862423    0.335794
H    -10.792714   -0.976944   -0.473290
H    -11.243262    1.192125   -1.457963
H     -9.389964    2.765176   -1.941847
H     -7.100529    2.161519   -1.402299
H     -6.344155    2.429019    1.301115
H     -5.927939    4.857155    1.184120
H     -4.144850    5.751917   -0.289863
H     -2.774534    4.208973   -1.664642
H     -3.182203    1.782027   -1.595860
H     -2.751672    1.264776    1.944209
H     -0.334471    1.600182    2.143933
H      1.578864    2.521025    0.449018
H      4.002019    2.850362    0.669858
H      8.416103   -1.952743    0.223199
H      8.218407   -3.660469   -1.521341
H      6.496050   -3.458846   -3.293779
H      4.974043   -1.501592   -3.327645
H      5.171782    0.258899   -1.635741
H      9.215175    0.873610   -1.515020
H     11.557632    0.366899   -2.087245
