  93
 
 C         -5.2041399251       -2.8245609761        1.0361541814
 C         -4.3268380809       -2.5927504282       -0.2082801116
 C         -5.1464157110       -2.8321878934       -1.4899746064
 C         -3.1762601964       -3.5795482192       -0.1821951086
 C         -3.4474910306       -4.9408619996       -0.2068384762
 C         -2.4435930708       -5.8906287837       -0.2211779908
 C         -1.1242373866       -5.4756424261       -0.2326312913
 C         -0.8266792778       -4.1300822970       -0.2042859931
 C         -1.8399932585       -3.1667146038       -0.1538275327
 N         -1.5124175029       -1.8211758124       -0.1072816849
 C         -0.1477808129       -1.4424918315       -0.0670279188
 C          0.4415877092       -0.8307005001       -1.1767719444
 C          1.7639449176       -0.4682965827       -1.1213401417
 C          2.5295564349       -0.7099455841        0.0246262145
 C          1.9502694115       -1.3344222462        1.1485712122
 C          0.5982856741       -1.6823242052        1.0722414261
 C          2.7552673312       -1.5924242192        2.3323085123
 C          2.2403621236       -2.2243141618        3.4709101300
 C          3.0246622668       -2.4585194087        4.5783855537
 C          4.3601015862       -2.0696330187        4.5925096208
 C          4.8945924412       -1.4500745457        3.4881099910
 C          4.1108365237       -1.2065722693        2.3562777690
 C          4.6993973106       -0.5596753228        1.2075228966
 N          5.9780167210       -0.2014618118        1.2520390307
 C          6.5036184345        0.3896605076        0.1844261774
 C          7.8902728550        0.7865199174        0.2118135723
 C          8.6957939543        0.5665601961        1.3344256537
 C         10.0121575423        0.9672347905        1.3010220928
 C         10.4857556005        1.5793019960        0.1384904929
 N          9.7481597616        1.7946020307       -0.9238056224
 C          8.4707920103        1.4135444050       -0.9096938998
 C          7.6690304639        1.6610264586       -2.0955462934
 N          8.2535623095        2.2552348475       -3.1358917030
 C          7.5446933722        2.4872501558       -4.2141209189
 C          6.1964654070        2.1472301935       -4.3443206536
 C          5.5755786582        1.5326155674       -3.2806706670
 C          6.3132817169        1.2746249764       -2.1201842158
 C          5.7208194472        0.6320869826       -0.9720003487
 N          4.4420630541        0.2753287866       -1.0166443052
 C          3.9165550449       -0.3164763242        0.0516529141
 C         -2.4821739218       -0.8218856588       -0.1185665000
 C         -2.0868009504        0.5097530737       -0.0079374490
 C         -3.0392096981        1.5124422908       -0.0507729368
 C         -2.9738760710        2.9437591850        0.0350994198
 C         -1.9261009248        3.8455250955        0.1613940115
 C         -2.2144088541        5.1954078548        0.1847073245
 C         -3.5264305535        5.6486491692        0.0665985724
 C         -4.5857188355        4.7706032390       -0.0611001829
 C         -4.3061924917        3.4113921076       -0.0585507516
 N         -5.1606910878        2.3359842662       -0.1964289953
 C         -6.5529742794        2.3951217259       -0.3257311638
 C         -7.3103213311        3.1571609465        0.5599199172
 C         -8.6849730599        3.2109784814        0.4244534079
 C         -9.3174100938        2.4997638683       -0.5818104148
 C         -8.5666745846        1.7360794222       -1.4602798039
 C         -7.1906375616        1.6854283410       -1.3403438787
 C         -4.4004804122        1.1797519705       -0.1946242087
 C         -4.7978690476       -0.1444118301       -0.2324275164
 C         -3.8472864480       -1.1535049196       -0.1967126962
 H         -4.6206832589       -2.6458119927        1.9374368366
 H         -6.0582405036       -2.1528898002        1.0424970232
 H         -5.5741353841       -3.8456638510        1.0642837261
 H         -5.5080886827       -3.8554854634       -1.5345621073
 H         -6.0052905169       -2.1681525889       -1.5331841103
 H         -4.5248213594       -2.6502726565       -2.3647905784
 H         -4.4733101138       -5.2772019351       -0.2174677385
 H         -2.6900785062       -6.9412542646       -0.2360631202
 H         -0.3223339197       -6.1980779151       -0.2670668449
 H          0.2062877559       -3.8192946404       -0.2296202941
 H         -0.1513280088       -0.6492513311       -2.0604997687
 H          2.2476314060        0.0053159489       -1.9606250220
 H          0.1004063257       -2.1541117393        1.9043345143
 H          1.2105616836       -2.5424804224        3.4959222923
 H          2.5978852883       -2.9485666833        5.4411493157
 H          4.9694224507       -2.2556278783        5.4641647960
 H          5.9265730760       -1.1379528388        3.4642172786
 H          8.2628831969        0.0875722277        2.1993296993
 H         10.6655515303        0.8156275984        2.1463029664
 H         11.5137712296        1.9107906627        0.0663163246
 H          8.0748762192        2.9710293945       -5.0244893005
 H          5.6620152892        2.3631834103       -5.2565428359
 H          4.5364023614        1.2427405844       -3.3120494628
 H         -1.0480952527        0.7685549098        0.1198225091
 H         -0.9082555456        3.4924274483        0.2347520051
 H         -1.4146330001        5.9140115339        0.2854365868
 H         -3.7201693630        6.7112763896        0.0707532603
 H         -5.5960032816        5.1346715274       -0.1722211125
 H         -6.8169881529        3.6905706301        1.3586000730
 H         -9.2665536002        3.8043637640        1.1145179788
 H        -10.3915364326        2.5406426252       -0.6812962541
 H         -9.0548451685        1.1837167646       -2.2497910575
 H         -6.6000029487        1.1117299430       -2.0390298180
 H         -5.8482784365       -0.3854623313       -0.2743949287
