  66
 
 C         -2.9052523187       -4.1775081253       -0.0002525371
 C         -2.6020265135       -3.5527007518        1.1973861048
 C         -1.9958283739       -2.3096750692        1.1976419208
 C         -1.6844615379       -1.6795634536       -0.0000943754
 C         -1.0405210075       -0.3426214362       -0.0000335661
 C         -1.8454359435        0.7902980992        0.0000310711
 C         -3.3171755811        0.6181201381        0.0001109812
 C         -4.0137315333        0.5220987105       -1.1988486499
 C         -5.3834867999        0.3284966152       -1.1978646136
 C         -6.0709291620        0.2301740602        0.0002972816
 C         -5.3834208468        0.3291852702        1.1983664005
 C         -4.0136692370        0.5228082085        1.1991638320
 C         -1.2575015956        2.0612307053        0.0000083679
 C         -2.0565965663        3.2434858589       -0.0000127512
 C         -1.4961182751        4.4735055895       -0.0000750153
 C         -0.0802323341        4.6317260612       -0.0001293015
 C          0.5219148639        5.8913465204       -0.0002003926
 C          1.8989439380        6.0186951480       -0.0002748148
 C          2.7048627737        4.8955735657       -0.0002667113
 C          2.1426399798        3.6175679022       -0.0001827987
 C          2.9393286398        2.4414551871       -0.0001274633
 C          2.4033428296        1.1916135802       -0.0000540125
 C          3.3705285158        0.0670541077        0.0000769363
 C          3.8794832840       -0.4199426779       -1.1977580776
 C          4.8556384607       -1.3995549499       -1.1970649614
 C          5.3434266360       -1.8941861486        0.0003881440
 C          4.8551837348       -1.3996329131        1.1976873642
 C          3.8790305172       -0.4200192144        1.1980739650
 C          0.9764795053        1.0118008942       -0.0000649949
 C          0.3526319105       -0.2460240712       -0.0000602394
 C          1.0680556484       -1.5447273409       -0.0000551843
 C          1.3439783686       -2.1925186330        1.1974548178
 C          1.9033744306       -3.4565888881        1.1970535099
 C          2.1834917317       -4.0923311649       -0.0000426924
 C          1.9037139804       -3.4564498435       -1.1971437829
 C          1.3443394763       -2.1923695820       -1.1975592178
 C          0.1560652953        2.1767000057       -0.0000567269
 C          0.7350268570        3.4716804226       -0.0001206725
 C         -1.9952755304       -2.3097958588       -1.1979126671
 C         -2.6014749446       -3.5528196103       -1.1978145118
 H         -3.3784914373       -5.1488069811       -0.0003125695
 H         -2.8390531700       -4.0352030345        2.1348343919
 H         -1.7603559693       -1.8216360350        2.1324738202
 H         -3.4761203797        0.6017521032       -2.1330212748
 H         -5.9161120606        0.2545587454       -2.1352002801
 H         -7.1405074381        0.0774278492        0.0003705820
 H         -5.9160000811        0.2558125382        2.1357721792
 H         -3.4760114732        0.6030437153        2.1332614334
 H         -3.1306833835        3.1262763864        0.0000373731
 H         -2.1114421030        5.3622039886       -0.0000633891
 H         -0.1044851902        6.7722147777       -0.0002109180
 H          2.3475699343        7.0019376024       -0.0003332604
 H          3.7808660859        4.9968745748       -0.0003120025
 H          4.0153086848        2.5557418786       -0.0001669377
 H          3.5052952595       -0.0263816383       -2.1323494994
 H          5.2406457783       -1.7745964809       -2.1345572455
 H          6.1069369281       -2.6585161467        0.0005091417
 H          5.2399478913       -1.7746205462        2.1352991203
 H          3.5045814388       -0.0264265901        2.1325481442
 H          1.1187834784       -1.6993592688        2.1322645502
 H          2.1159737191       -3.9498242863        2.1346772958
 H          2.6163406938       -5.0821547416       -0.0000400263
 H          2.1166362024       -3.9495506348       -2.1347646665
 H          1.1194662936       -1.6990789742       -2.1323772425
 H         -1.7593545075       -1.8218585984       -2.1326843796
 H         -2.8380794709       -4.0354111212       -2.1353233049
