  74
 
 C          9.3686067269       -0.9710914203       -0.5540031886
 C          8.2668854106       -0.2033657065        0.1769332593
 C          8.6874216569        1.2531783850        0.3651372762
 C          6.9476452650       -0.3231548244       -0.5954946071
 C          5.7388468522        0.2407555407        0.1498719508
 C          4.4359986073       -0.0516833877       -0.5949141181
 C          3.1967984070        0.5477075852        0.0957092389
 C          3.1259404748        2.0415205098       -0.2221479284
 C          1.9306477856       -0.2084132353       -0.3463890460
 C          1.9944002845       -1.7120710461        0.0317917953
 C          0.5629802777       -2.1572746463        0.3780539423
 C         -0.2927383483       -0.9956123320       -0.1164806480
 C         -1.7387366975       -0.9233937306        0.3578649890
 C         -2.4925563387       -2.2251722348       -0.0721656665
 C         -3.8413155606       -1.8736585622       -0.5762410701
 C         -4.5411786549       -0.8579101550        0.1815036244
 C         -6.0019177058       -0.9252856804        0.4329183128
 C         -6.7318070329        0.0041197421       -0.5707647394
 O         -8.1310723673       -0.0165673642       -0.3812344857
 C         -6.1568344199        1.4184094946       -0.4662574673
 C         -4.6518070259        1.4380439437       -0.7240359379
 C         -3.8723410824        0.4978157273        0.2299153919
 C         -3.9340301674        1.0587109118        1.6614911892
 C         -2.4038100013        0.3289012601       -0.2536079846
 C         -1.5557233027        1.5827692256       -0.0103062925
 C         -0.1049251635        1.4296062194       -0.4742866890
 C          0.5610846757        0.2439056499        0.2260102434
 C          0.6735772199        0.4909682216        1.7327630437
 H          9.5310277124       -0.5486267395       -1.5438691822
 H          9.0982202905       -2.0188189472       -0.6688510936
 H         10.3042708980       -0.9179562194       -0.0012158349
 H          8.1293086078       -0.6559205763        1.1664365877
 H          9.6519946552        1.3054579257        0.8662552625
 H          7.9647700089        1.7956422002        0.9690438959
 H          8.7756070908        1.7493252564       -0.5996566531
 H          7.0488232195        0.1867148678       -1.5569624282
 H          6.7639431330       -1.3808524749       -0.8035541758
 H          5.6895884888       -0.2077694730        1.1457006164
 H          5.8594074467        1.3166308438        0.2768706774
 H          4.3319700350       -1.1334837689       -0.6740882136
 H          4.5015633404        0.3449834784       -1.6110625514
 H          3.3208268556        0.4250173273        1.1760363467
 H          2.8147104005        2.1953317185       -1.2532475052
 H          4.1020777908        2.5020458988       -0.0901693737
 H          2.4305151773        2.5575189275        0.4323249901
 H          1.8705308658       -0.1245332502       -1.4378994843
 H          2.6625894465       -1.8631034228        0.8799880124
 H          2.3811103820       -2.2997358191       -0.8007266054
 H          0.3069903725       -3.0995305985       -0.1048365753
 H          0.4357773321       -2.2911729671        1.4524414919
 H         -0.3235039513       -1.0548477713       -1.2125045974
 H         -1.7739220841       -0.8525644005        1.4464444331
 H         -1.9301759288       -2.7526996892       -0.8428707704
 H         -2.5588351193       -2.8799388243        0.8020204424
 H         -3.9706822136       -1.8822203698       -1.6591364880
 H         -6.2639301234       -0.5915424604        1.4432907031
 H         -6.3660536026       -1.9463822662        0.3089960325
 H         -6.5846315718       -0.3836362464       -1.5847115064
 H         -8.3218304079        0.3280637390        0.5011584833
 H         -6.3753578549        1.8199432312        0.5261947583
 H         -6.6586526561        2.0569623368       -1.1982220671
 H         -4.2871927201        2.4617994940       -0.6203280968
 H         -4.4695230960        1.1173626075       -1.7526558852
 H         -4.9363661653        0.9731544714        2.0676287472
 H         -3.6559403490        2.1094408632        1.6751146385
 H         -3.2659837113        0.5054624282        2.3159757090
 H         -2.4393520910        0.1649900631       -1.3383619796
 H         -1.5523059249        1.8331898295        1.0482367477
 H         -2.0034296357        2.4211601910       -0.5480817319
 H         -0.0828697004        1.2676842845       -1.5553601732
 H          0.4196874323        2.3620012588       -0.2688940202
 H          1.2785436647       -0.2747655619        2.2078338116
 H         -0.3001556760        0.4922023350        2.2116379171
 H          1.1386399918        1.4555433245        1.9208326483
