  78
 
 O         -0.3392786187       -0.1114885411        1.3583054002
 C         -1.0769578970        0.6720220924        0.7950059896
 C         -2.5056853600        0.3921239748        0.5510023556
 C         -3.2394212394        1.0884724720       -0.4092867909
 C         -4.5626050391        0.7721755547       -0.6355440552
 C         -5.1798460462       -0.2403161308        0.0984689244
 N         -6.5313456995       -0.5554928931       -0.1321953692
 C         -6.9513967934       -1.0091259980       -1.3875160725
 C         -6.0627006367       -1.2355371562       -2.4311328048
 C         -6.5131298552       -1.6895704285       -3.6612868072
 C         -7.8553993280       -1.9371565004       -3.8658499708
 C         -8.7503968762       -1.7513059178       -2.8231056693
 C         -8.3060041780       -1.3009688824       -1.5936328828
 O         -9.2465672394       -1.1775618085       -0.6016446959
 C         -8.8159157878       -0.7539171142        0.6299109283
 C         -9.7738852703       -0.6368711686        1.6200762686
 C         -9.4255761663       -0.1782435134        2.8816055338
 C         -8.1175401954        0.1802285475        3.1363648160
 C         -7.1524970169        0.0619160286        2.1477992336
 C         -7.4774982810       -0.4294887919        0.8895010541
 C         -4.4475575632       -0.9423096562        1.0555573049
 C         -3.1223601097       -0.6332494735        1.2698975981
 C         -0.5659904875        1.9968710628        0.3342533682
 C         -1.1454982622        3.1852387936        0.7629409717
 C         -0.5841048075        4.3983628014        0.4055905542
 C          0.5568686404        4.4329813514       -0.3809930951
 C          1.1432364916        3.2544859470       -0.8080550924
 C          0.5891174675        2.0318052101       -0.4494154337
 C          1.1311467131        0.7473363858       -0.9872270549
 O          0.4299372661        0.0143115970       -1.6546640368
 C          2.5445107795        0.4486812137       -0.6853675593
 C          3.1906355922       -0.5498282683       -1.4163557206
 C          4.5024454947       -0.8761612497       -1.1520351983
 C          5.1915122136       -0.2181112415       -0.1335239048
 N          6.5294622048       -0.5503729135        0.1466222721
 C          6.8896285335       -1.0552034226        1.4009682372
 C          5.9532646742       -1.3158053600        2.3937017139
 C          6.3450800824       -1.8202032780        3.6243097507
 C          7.6753877947       -2.0847117608        3.8795704360
 C          8.6177652365       -1.8648126438        2.8863711059
 C          8.2319704331       -1.3641983786        1.6565608672
 O          9.2173007211       -1.2092040258        0.7136608274
 C          8.8457312030       -0.7325858618       -0.5177888347
 C          9.8487283057       -0.5814483332       -1.4574707057
 C          9.5609251793       -0.0692358992       -2.7136215858
 C          8.2677022758        0.3081624780       -3.0128381591
 C          7.2577426097        0.1559227565       -2.0751175964
 C          7.5222211232       -0.3889117210       -0.8246448252
 C          4.5446352555        0.7678939628        0.6110132038
 C          3.2348898765        1.1008739754        0.3361226475
 H         -2.7673804819        1.8667961779       -0.9896180980
 H         -5.1333230228        1.3097051728       -1.3785005488
 H         -5.0080409711       -1.0667036682       -2.2814558489
 H         -5.8001406826       -1.8514949465       -4.4547703416
 H         -8.2114238170       -2.2857048229       -4.8223546283
 H         -9.8022885309       -1.9569621623       -2.9408485084
 H        -10.7903442355       -0.9045881803        1.3798045892
 H        -10.1790947089       -0.0932730739        3.6484673589
 H         -7.8339403598        0.5597220368        4.1059464131
 H         -6.1382048594        0.3636155998        2.3568185455
 H         -4.9234800456       -1.7372907407        1.6104777779
 H         -2.5356337236       -1.1801698533        1.9926747431
 H         -2.0272149982        3.1532048483        1.3864919988
 H         -1.0366231428        5.3193819272        0.7414363227
 H          0.9904127450        5.3810943079       -0.6620166109
 H          2.0260271358        3.2770036259       -1.4304857271
 H          2.6363093138       -1.0625712350       -2.1881026748
 H          5.0007963542       -1.6510083041       -1.7156986613
 H          4.9073473031       -1.1343224969        2.2031171501
 H          5.5959726038       -2.0078650401        4.3778474924
 H          7.9858410535       -2.4723968063        4.8368989428
 H          9.6621556169       -2.0821507637        3.0433870730
 H         10.8517833882       -0.8655945737       -1.1822695351
 H         10.3492566385        0.0420636108       -3.4411076782
 H          8.0307370420        0.7290487377       -3.9778398849
 H          6.2556102881        0.4727830227       -2.3176192030
 H          5.0822436747        1.2720188104        1.4006438657
 H          2.7399500093        1.8591909168        0.9238082344
