  86
 
 C          2.2533912464       -2.7901591712       -2.1214969109
 C          1.0591647076       -3.6510062521       -2.5168167344
 C          0.0437130855       -3.8208868622       -1.3860795973
 C          0.5555864471       -4.7154263597       -0.2567539969
 C         -0.4480299582       -4.8594087345        0.8985196024
 C         -0.4596048491       -6.2819646479        1.4727662591
 C         -1.1760903531       -7.2736657760        0.5637732298
 C         -0.1358080890       -3.8667312788        2.0380631451
 N         -0.0958012589       -2.5052992604        1.5945213391
 C          1.0344571204       -1.7816159473        1.3034390920
 C          2.3648386109       -2.1044671956        1.4809622156
 C          3.3340710746       -1.1782623423        1.0724501234
 C          2.9574492996        0.0489048398        0.5191671592
 N          3.9435681499        0.9480845842        0.1186170239
 C          3.9715568933        2.2980305224        0.4150792819
 C          3.1048072924        3.0476419851        1.1949314599
 C          3.3863084242        4.3949259608        1.3630121810
 C          4.5090417176        4.9776229354        0.7833907892
 C          5.3953357157        4.2282759314        0.0306543758
 C          5.1320353333        2.8766649803       -0.1542518849
 C          5.8259428316        1.8191456993       -0.8320267132
 C          6.9919108415        1.7702634755       -1.5861585259
 C          7.3699198343        0.5610841700       -2.1415978772
 C          6.5947090693       -0.5818145126       -1.9713117925
 C          5.4276902762       -0.5572168599       -1.2229497899
 C          5.0608143203        0.6436268211       -0.6362180903
 C          1.6127789447        0.3974843676        0.3552530344
 C          0.6349416184       -0.5256521478        0.7485017843
 C         -0.7799547527       -0.5166643922        0.7271730758
 C         -1.7382884911        0.4188542345        0.3161698699
 C         -3.0899645917        0.0829269244        0.4471078339
 N         -4.0571096730        1.0021528739        0.0432666929
 C         -4.0729294452        2.3463482099        0.3654526333
 C         -3.2100180520        3.0697102486        1.1740585267
 C         -3.4769367591        4.4169108196        1.3631822568
 C         -4.5819510557        5.0255035097        0.7760642165
 C         -5.4649018373        4.3022719829       -0.0054394471
 C         -5.2160249229        2.9511309292       -0.2115847379
 C         -5.9125830293        1.9158242807       -0.9202502768
 C         -7.0674597001        1.8966877564       -1.6922784483
 C         -7.4538027349        0.7030929014       -2.2747624983
 C         -6.6971130976       -0.4534224120       -2.1133482363
 C         -5.5411646678       -0.4581281010       -1.3479883196
 C         -5.1660799330        0.7267979711       -0.7342444395
 C         -3.4932846430       -1.1482447602        0.9716309862
 C         -2.5439841317       -2.0888003910        1.3948297046
 C         -1.2083720518       -1.7684989402        1.2655213403
 H          2.9045898821       -2.6313225796       -2.9784328798
 H          2.8361505090       -3.2648751109       -1.3361085612
 H          1.9191293727       -1.8204938031       -1.7586962502
 H          0.5564629826       -3.1813081455       -3.3653066864
 H          1.4083430722       -4.6338790024       -2.8431095152
 H         -0.2172770442       -2.8345285275       -1.0011894608
 H         -0.8677866752       -4.2657520050       -1.7946405385
 H          0.7715689145       -5.7001036605       -0.6756601707
 H          1.4940379798       -4.3166643955        0.1284488585
 H         -1.4505362974       -4.6321243265        0.5212171463
 H          0.5684623536       -6.6109017300        1.6402483967
 H         -0.9641516356       -6.2736461312        2.4421899352
 H         -0.7079355384       -7.3197270286       -0.4160835146
 H         -2.2157402520       -6.9828361290        0.4304412526
 H         -1.1520559979       -8.2697460021        0.9992089001
 H          0.8294264727       -4.1180548625        2.4832597634
 H         -0.9041457828       -3.9567871818        2.8138040121
 H          2.6771189714       -3.0282518499        1.9438202308
 H          4.3783524154       -1.3904014791        1.2329291374
 H          2.2455465287        2.5983977139        1.6683987505
 H          2.7228166247        5.0014297718        1.9610302574
 H          4.6950412147        6.0305997473        0.9356127427
 H          6.2764987639        4.6783926647       -0.4005255174
 H          7.5831519203        2.6603206713       -1.7384585077
 H          8.2747756134        0.5024857195       -2.7284476320
 H          6.9041950165       -1.5066825181       -2.4346732236
 H          4.8195641827       -1.4414491946       -1.1158245564
 H          1.3399098024        1.3239979798       -0.1225999840
 H         -1.4456228686        1.3477271761       -0.1450150974
 H         -2.3648921110        2.6002099487        1.6533035870
 H         -2.8161045624        5.0030779637        1.9840480143
 H         -4.7568944225        6.0777679758        0.9454061813
 H         -6.3327624429        4.7720164648       -0.4426751772
 H         -7.6443044072        2.7974482048       -1.8367641784
 H         -8.3507342315        0.6672941952       -2.8754424705
 H         -7.0127520522       -1.3655924085       -2.5973177096
 H         -4.9478758037       -1.3536417401       -1.2466136578
 H         -4.5434767555       -1.3520966450        1.1016599950
 H         -2.8703639244       -3.0185670097        1.8336404392
