  86
 
 C         -2.4835018378       -2.4938682656        2.2741111477
 C         -1.3471060802       -3.3578277820        2.8088159034
 C         -0.2872534157       -3.6739495566        1.7527080789
 C         -0.7843387317       -4.6477387768        0.6839671533
 C          0.2680820413       -4.9425935309       -0.3967335526
 C          0.2354425783       -6.4103267511       -0.8421425454
 C          0.8509828545       -7.3486877434        0.1891704038
 C          0.0663873160       -4.0447665389       -1.6358635962
 N          0.0658588565       -2.6482164455       -1.3167776131
 C         -1.0438549317       -1.8546963086       -1.1627363650
 C         -2.3773403541       -2.1443566539       -1.3735431693
 C         -3.3238627063       -1.1449454226       -1.1105441938
 C         -2.9208845247        0.1188374521       -0.6687732761
 N         -3.8864618788        1.0921100933       -0.4198535755
 C         -3.8459724135        2.4002822709       -0.8650382686
 C         -2.9119798547        3.0274338360       -1.6746479731
 C         -3.1327818620        4.3552104010       -2.0086502073
 C         -4.2606902021        5.0360679776       -1.5613367607
 C         -5.2125893704        4.4067686404       -0.7791094512
 C         -5.0112685448        3.0772544835       -0.4292848656
 C         -5.7802478970        2.1264689999        0.3213753970
 C         -6.9841716425        2.2016648138        1.0110779990
 C         -7.4377840691        1.0754801659        1.6742074849
 C         -6.7011004231       -0.1048989329        1.6735463612
 C         -5.4969951210       -0.2035004045        0.9926939905
 C         -5.0532978080        0.9111615484        0.2987944208
 C         -1.5716297853        0.4322108135       -0.4742798193
 C         -0.6163311224       -0.5626249315       -0.7231451064
 C          0.7937672701       -0.6098229846       -0.6172550062
 C          1.7710189546        0.3235405410       -0.2464464947
 C          3.1115312919       -0.0740644948       -0.2779540534
 N          4.0978898629        0.8434007878        0.0853545621
 C          4.0732603097        1.6486697851        1.2082700896
 C          3.1456257662        1.6991925206        2.2375028685
 C          3.3814084359        2.5836422373        3.2783383925
 C          4.5177538219        3.3864777225        3.3034097229
 C          5.4635011963        3.3173323215        2.2964505349
 C          5.2471576317        2.4399243771        1.2413948759
 C          6.0064763210        2.0934022933        0.0740043157
 C          7.2135729024        2.5409422849       -0.4479215534
 C          7.6570492571        2.0040318644       -1.6429055650
 C          6.9064698674        1.0508331443       -2.3245334992
 C          5.6989723788        0.5901279187       -1.8237241815
 C          5.2640830430        1.1001134200       -0.6100710234
 C          3.4863464863       -1.3638292520       -0.6641029894
 C          2.5174132437       -2.3110760566       -1.0241889558
 C          1.1926436118       -1.9271899736       -0.9995091184
 H         -3.1646587251       -2.2255437970        3.0789035339
 H         -3.0510652870       -3.0207364759        1.5111925373
 H         -2.0912333111       -1.5787913635        1.8354177048
 H         -0.8652902109       -2.8289335391        3.6343390748
 H         -1.7531758562       -4.2908200047        3.2075580991
 H          0.0371003056       -2.7394893136        1.2936093092
 H          0.5822229166       -4.1158030219        2.2471035251
 H         -1.0675420167       -5.5785973009        1.1789145649
 H         -1.6821891016       -4.2471441380        0.2135590281
 H          1.2600199482       -4.7296787824        0.0150508465
 H         -0.7982575723       -6.7041327516       -1.0378995660
 H          0.7894769500       -6.5134631615       -1.7785273595
 H          1.8952214171       -7.0946332954        0.3571911826
 H          0.8003171020       -8.3774114893       -0.1594321991
 H          0.3289876429       -7.2862162172        1.1404913027
 H         -0.8837445710       -4.2945676553       -2.1132882329
 H          0.8705654140       -4.2372394439       -2.3542621923
 H         -2.7078788063       -3.1005587972       -1.7496773224
 H         -4.3678180414       -1.3335134253       -1.2998627172
 H         -2.0473470027        2.4997796370       -2.0465635577
 H         -2.4167086971        4.8673544656       -2.6336402844
 H         -4.3983881938        6.0700550827       -1.8414686592
 H         -6.0969632296        4.9313492663       -0.4510200236
 H         -7.5464602633        3.1227042702        1.0321031120
 H         -8.3730884130        1.1135454862        2.2130651037
 H         -7.0705536598       -0.9612864897        2.2175466343
 H         -4.9198989886       -1.1143126421        1.0170123656
 H         -1.2811456819        1.3943472856       -0.0855308636
 H          1.5035952837        1.3369621536        0.0037478301
 H          2.2740926369        1.0629532203        2.2386886664
 H          2.6703724518        2.6454657084        4.0885505224
 H          4.6664467782        4.0648987838        4.1305408754
 H          6.3545989034        3.9255533355        2.3287233363
 H          7.7865212417        3.2962609890        0.0681067932
 H          8.5948892299        2.3364693810       -2.0629724558
 H          7.2687000262        0.6646166965       -3.2655885518
 H          5.1125356015       -0.1321992562       -2.3700833398
 H          4.5257720853       -1.6468008082       -0.6354682804
 H          2.8212575019       -3.3082328434       -1.3008984555
