  97
 
 C          7.2150093078        4.7864061617       -0.1426558780
 C          7.9079165356        3.5861111579       -0.1797972405
 C          7.2209872481        2.3882902536       -0.1495912045
 C          5.8289474389        2.3844462992       -0.0826614095
 C          5.0980288362        1.1189090064       -0.0521214263
 N          5.7978310314       -0.0113885965       -0.0314970004
 C          5.0937269541       -1.1388498961       -0.0031784716
 C          5.8198504574       -2.4073181933        0.0192949074
 C          5.1227439948       -3.6140744639       -0.0102225494
 C          5.8115568811       -4.8109084384        0.0117257548
 C          7.1969344486       -4.8147780203        0.0639801165
 C          7.8949743120       -3.6172499398        0.0935379201
 C          7.2125165391       -2.4167092974        0.0709208543
 N          3.7628135164       -1.1820656022        0.0053543363
 C          3.1463479961       -0.0060186297       -0.0169799843
 C          1.6833679537       -0.0030711286       -0.0089860818
 C          0.9854647386       -1.1842084067        0.2154517982
 C         -0.4006981753       -1.1907088789        0.2277233165
 N         -1.0817473732       -2.3957048546        0.4484128193
 C         -2.1591396293       -2.5925128522        1.2968207070
 C         -2.6220120673       -1.7870140831        2.3257542542
 C         -3.7321316942       -2.2148645030        3.0276765599
 C         -4.3521716065       -3.4287705654        2.7396436096
 C         -3.8565859123       -4.2653173538        1.7601123078
 C         -2.7464617909       -3.8497498951        1.0374120064
 C         -1.9676455039       -4.4514477797       -0.0079417984
 N         -2.1104297341       -5.6231131303       -0.6071159707
 C         -1.2394271336       -5.9096933190       -1.5560620799
 C         -0.2095323540       -5.0610418881       -1.9593436654
 C         -0.0478250146       -3.8289892959       -1.3466508354
 C         -0.9444362044       -3.5229779595       -0.3358460753
 C         -1.1146667418        0.0024296185        0.0061686921
 N         -2.5107155056        0.0051066212        0.0137341879
 C         -3.3270731408       -0.7805286205       -0.7809565775
 C         -2.9836422636       -1.6667252360       -1.7897179501
 C         -4.0060161153       -2.3301975067       -2.4403687922
 C         -5.3398580006       -2.0962486470       -2.1193200838
 C         -5.6874548559       -1.1702589252       -1.1555873667
 C         -4.6767503789       -0.4995000563       -0.4819118655
 C         -4.6693829853        0.5157698747        0.5346295211
 C         -5.6702899948        1.1892399473        1.2201208607
 C         -5.3089028498        2.1142696099        2.1796943410
 C         -3.9707501052        2.3446631182        2.4849859379
 C         -2.9578779321        1.6784176923        1.8224095518
 C         -3.3155170867        0.7930575990        0.8178641342
 C         -0.3984746800        1.1927574313       -0.2231223405
 N         -1.0771684945        2.4003737312       -0.4365966830
 C         -2.1627507488        2.6013822106       -1.2735053274
 C         -2.6402298197        1.7973315422       -2.2968845380
 C         -3.7560257102        2.2295919077       -2.9870065995
 C         -4.3676192774        3.4463665384       -2.6930781669
 C         -3.8578057087        4.2813223305       -1.7195124506
 C         -2.7417769117        3.8613115397       -1.0085655427
 C         -1.9491628167        4.4602085467        0.0279823934
 N         -2.0803921624        5.6328543498        0.6278814188
 C         -1.1980598573        5.9161708313        1.5672897556
 C         -0.1676993766        5.0632032601        1.9601425908
 C         -0.0179272144        3.8301026701        1.3465216757
 C         -0.9265536450        3.5274652722        0.3454732864
 C          0.9877202826        1.1808076653       -0.2258583999
 N          3.7672849501        1.1675147586       -0.0460779144
 C          5.1370093391        3.5939646018       -0.0455777327
 C          5.8302849429        4.7880501810       -0.0751786079
 H          7.7548038919        5.7217205133       -0.1665385720
 H          8.9866888441        3.5878236740       -0.2327946928
 H          7.7426373734        1.4447076518       -0.1790216389
 H          4.0450397963       -3.5929075986       -0.0515843007
 H          5.2698040577       -5.7450733709       -0.0113651901
 H          7.7332405971       -5.7522325414        0.0818144151
 H          8.9742497032       -3.6232500215        0.1346507743
 H          7.7382026490       -1.4752096959        0.0946777492
 H          1.5347094953       -2.0909693009        0.4114440219
 H         -2.1309908433       -0.8607928918        2.5810173482
 H         -4.1226066314       -1.5934251385        3.8197332724
 H         -5.2213808907       -3.7232078511        3.3081621372
 H         -4.3056249866       -5.2228342858        1.5501740543
 H         -1.3715847021       -6.8729136291       -2.0302303914
 H          0.4571034979       -5.3644856669       -2.7517560942
 H          0.7327247457       -3.1459250807       -1.6513939281
 H         -1.9545873551       -1.8319718101       -2.0729309633
 H         -3.7623201600       -3.0404164752       -3.2163387040
 H         -6.1109641120       -2.6373682669       -2.6465492526
 H         -6.7228308963       -0.9664428435       -0.9293267694
 H         -6.7087973270        0.9882071801        1.0060459886
 H         -6.0723030852        2.6574308757        2.7159636718
 H         -3.7160355173        3.0542592686        3.2579824853
 H         -1.9251393630        1.8409263186        2.0935191463
 H         -2.1560211814        0.8688676712       -2.5569414354
 H         -4.1577579234        1.6093774608       -3.7743806552
 H         -5.2416504341        3.7442465648       -3.2523363351
 H         -4.3003425725        5.2409304818       -1.5053532074
 H         -1.3208686970        6.8802802060        2.0421643388
 H          0.5086305119        5.3641494082        2.7452583331
 H          0.7627930675        3.1437782768        1.6434006528
 H          1.5383695503        2.0854037065       -0.4278266960
 H          4.0597512457        3.5770665044        0.0076574775
 H          5.2925305203        5.7243593411       -0.0462410452
