  63
 
 C          8.6628883272       -0.7036203121        0.4847051177
 C          7.7639904651       -1.4963133662       -0.4688630964
 N          6.5551463452       -1.9561871335        0.1732532610
 C          6.6316054145       -3.2549971056        0.8015136284
 C          6.2079334752       -4.3818958986       -0.1452730494
 C          5.4105798671       -1.2160688363        0.1770366320
 C          4.1862941404       -1.7352940498        0.6477807800
 C          3.0280106660       -0.9994889239        0.6019383398
 C          2.9906901963        0.3051622964        0.0719039417
 C          4.2365443770        0.8569276976       -0.2996519635
 C          5.4009034333        0.1223109409       -0.2702495905
 O          4.3563254626        2.1554723560       -0.7173005105
 C          3.3232578145        3.0628200989       -0.5567622809
 O          3.6185652111        4.2248403883       -0.7853179927
 C          2.0427698617        2.5452887356       -0.1892987775
 C          0.9745562099        3.4746910867        0.0067183426
 O          1.0328565945        4.6929674948       -0.0263042740
 O         -0.2743059133        2.9578720692        0.3054566421
 C         -0.5409585169        1.6194509843        0.1925363399
 C         -1.8665002599        1.2578835452        0.2857945570
 C         -2.2539631326       -0.0888567647        0.1741090099
 N         -3.5881792878       -0.4602518617        0.2782655357
 C         -4.0171151603       -1.7842651706        0.1007789650
 C         -3.4350065642       -2.8386416165        0.8066653512
 C         -3.8647810835       -4.1351179533        0.6075738676
 C         -4.8890458074       -4.4062088732       -0.2909715684
 C         -5.5102092979       -3.3693034481       -0.9594899076
 C         -5.0893303657       -2.0623889572       -0.7533994094
 S         -5.9148635014       -0.7356734167       -1.5810605596
 C         -5.7608249985        0.4567715858       -0.2866915436
 C         -6.7789469046        1.3770179657       -0.0796488920
 C         -6.6811643083        2.2905467888        0.9520279939
 C         -5.5797540169        2.2633249173        1.7977512058
 C         -4.5606138826        1.3555230217        1.5898098753
 C         -4.6168818112        0.4623918753        0.5184888142
 C         -1.2625630980       -1.0186068588       -0.1771879764
 C          0.0577420917       -0.6522330932       -0.2626746029
 C          0.4860361989        0.6675746648       -0.0045353820
 C          1.8298894078        1.1295772905       -0.0381626541
 H          8.9513476215       -1.3142353872        1.3366449406
 H          9.5623764300       -0.3891381497       -0.0373486941
 H          8.1477613108        0.1789967619        0.8548013333
 H          7.5100993234       -0.8864404171       -1.3375813041
 H          8.3085077470       -2.3742796236       -0.8256684826
 H          6.0148696025       -3.2660470297        1.7019752320
 H          7.6675469330       -3.4166481360        1.1080902389
 H          6.2851029772       -5.3374348057        0.3659993546
 H          6.8504445216       -4.4046656854       -1.0218889384
 H          5.1830165656       -4.2409735138       -0.4770079929
 H          4.1314838232       -2.7321059318        1.0501621056
 H          2.1263854519       -1.4177085809        1.0164921114
 H          6.2969740742        0.6322409380       -0.5784771969
 H         -2.5842381876        2.0501185784        0.4157767733
 H         -2.6546473810       -2.6217418975        1.5195475360
 H         -3.4039540733       -4.9383960328        1.1610272553
 H         -5.2162981458       -5.4210323771       -0.4527544978
 H         -6.3265998301       -3.5555335560       -1.6393329539
 H         -7.6409229215        1.3611881981       -0.7282341483
 H         -7.4707960302        3.0077877730        1.1108341933
 H         -5.5176180863        2.9499628792        2.6276859458
 H         -3.7158599319        1.3183780477        2.2601077655
 H         -1.5319998921       -2.0330380727       -0.4216852717
 H          0.7809685180       -1.3793777979       -0.5907233001
