  64
 
 C          8.4993738731       -0.0000465555        0.0000323652
 C          7.8046934996       -0.4649968521       -1.1045105325
 C          6.4208477389       -0.4655639153       -1.1055778663
 C          5.7169939648       -0.0000286619       -0.0000024400
 C          4.2345285686       -0.0000215194       -0.0000206785
 C          3.5384573667       -1.1211398902        0.4696326006
 C          4.2165738837       -2.2726107951        0.9505116275
 C          3.5298265708       -3.3585017795        1.3991713686
 C          2.1195497406       -3.3613574367        1.3931572905
 C          1.4317085111       -2.2772894911        0.9417786291
 C          2.1085485867       -1.1216838810        0.4690459845
 C          1.4128603265       -0.0000027454       -0.0000314505
 C         -0.0687553658        0.0000083565       -0.0000310347
 C         -0.7746751872       -0.3231391072       -1.1544694534
 C         -2.1564519672       -0.3211453947       -1.1589779386
 C         -2.8570310095        0.0000228305       -0.0000146413
 N         -4.2618046434        0.0000252046       -0.0000016389
 C         -5.0692275564        1.0402773440        0.4129765914
 C         -4.7187599952        2.3039373163        0.8679494638
 C         -5.7376988330        3.1761258143        1.2000102429
 C         -7.0771654507        2.8100795920        1.0790924091
 C         -7.4322976852        1.5624704609        0.6059055937
 C         -6.4258067496        0.6679316966        0.2639827025
 C         -6.4258160822       -0.6678813869       -0.2639071946
 C         -7.4323196272       -1.5624197514       -0.6057939274
 C         -7.0772048840       -2.8100276190       -1.0789972982
 C         -5.7377427254       -3.1760725731       -1.1999678407
 C         -4.7187915766       -2.3038849542       -0.8679421946
 C         -5.0692422129       -1.0402265872       -0.4129519665
 C         -2.1564345660        0.3211856363        1.1589397329
 C         -0.7746584383        0.3231641423        1.1544155433
 C          2.1085671016        1.1216707703       -0.4690997025
 C          1.4317443907        2.2772856289       -0.9418369933
 C          2.1196001740        3.3613403504       -1.3932176851
 C          3.5298770739        3.3584687489       -1.3992186383
 C          4.2166099777        2.2725644255       -0.9505613590
 C          3.5384760364        1.1211022684       -0.4696878921
 C          6.4208267214        0.4654993988        1.1055901765
 C          7.8046727452        0.4649134478        1.1045579728
 H          9.5797218557       -0.0000570795        0.0000468160
 H          8.3424834070       -0.8288673936       -1.9683268407
 H          5.8762812224       -0.8280322930       -1.9661885568
 H          5.2969231757       -2.2684214342        0.9517059268
 H          4.0587804880       -4.2279483568        1.7620366507
 H          1.5912311666       -4.2338261316        1.7498016238
 H          0.3514263848       -2.2789383063        0.9351082753
 H         -0.2327234744       -0.5719936066       -2.0554287591
 H         -2.6996659553       -0.5573446021       -2.0620276549
 H         -3.6843247781        2.6011753381        0.9526758703
 H         -5.4908907402        4.1647009755        1.5595241978
 H         -7.8451341105        3.5189271318        1.3525211198
 H         -8.4704866869        1.2851368832        0.4987233404
 H         -8.4705046278       -1.2850867096       -0.4985715267
 H         -7.8451836587       -3.5188747207       -1.3523987833
 H         -5.4909478173       -4.1646461119       -1.5594953115
 H         -3.6843595213       -2.6011224019       -0.9527090191
 H         -2.6996354128        0.5573901267        2.0619958470
 H         -0.2326932089        0.5720114721        2.0553689133
 H          0.3514626571        2.2789405734       -0.9351950919
 H          1.5912939814        4.2338161695       -1.7498631769
 H          4.0588431554        4.2279085783       -1.7620822709
 H          5.2969595837        2.2683686859       -0.9517267051
 H          5.8762434604        0.8279756557        1.9661868997
 H          8.3424461576        0.8287730213        1.9683892885
