  116
 
 C        -12.9801998516       -2.6981551720       -0.6692192285
 C        -13.0429265218       -1.4381501692       -0.0962537138
 C        -11.8943582585       -0.6862011941        0.0537697724
 C        -10.6618451533       -1.1871609664       -0.3637222524
 C         -9.4745625960       -0.3646953949       -0.1916549378
 N         -9.5731581079        0.9914750633       -0.1307211004
 C         -8.3573956830        1.4643087886       -0.0115566522
 C         -8.0508347561        2.8779764983        0.1238197462
 C         -8.8964958037        3.7991467449       -0.4949050041
 C         -8.6503764419        5.1536633164       -0.3895997476
 C         -7.5610401995        5.6091800856        0.3361655912
 C         -6.7312284244        4.7016234076        0.9730429999
 C         -6.9734899824        3.3441297298        0.8757510969
 N         -7.4371919034        0.4477136845        0.0051117438
 C         -6.0381788812        0.5421116015        0.0736802300
 C         -5.3423592152        1.3086685211       -0.8574022783
 C         -3.9655003328        1.3541001015       -0.8179039211
 C         -3.2493831893        0.6230148962        0.1348955722
 C         -1.7890618364        0.6260745833        0.1421941740
 C         -1.0778653661        1.8580979498        0.2811378895
 C         -1.7472975989        3.0656983711        0.4976601723
 C         -1.0544529522        4.2577203320        0.6916022534
 C          0.3226313240        4.2511439771        0.7211372034
 C          1.0146615299        3.0545255899        0.5480930200
 C          0.3476975405        1.8536707214        0.2955929176
 C          1.0577783683        0.6180994289        0.1492639680
 C          2.5124703552        0.6102772765        0.1404698259
 C          3.2318740204       -0.2041310839        1.0243472623
 C          4.6069459708       -0.2484906668        0.9967522613
 C          5.3211845164        0.5095054482        0.0654744953
 C          6.7650126665        0.4702493556       -0.0433027011
 N          7.4971673141        1.5164308044       -0.3397687565
 C          8.7836501087        1.0862872020       -0.3396810757
 C          9.9601225772        1.8553243525       -0.5598336131
 C          9.8902773175        3.2309731301       -0.8030647397
 C         11.0381576074        3.9625760346       -0.9787851030
 C         12.2741284286        3.3231598185       -0.9083050095
 C         12.3538540720        1.9697587527       -0.6756973612
 C         11.2034916180        1.1856318867       -0.5005976871
 C         11.2520296708       -0.2511023613       -0.2891061320
 C         12.4638434582       -0.9555258094       -0.3089362460
 C         12.5175694244       -2.3208296258       -0.1558290004
 C         11.3451682556       -3.0514160739        0.0082080440
 C         10.1374603868       -2.3993501921        0.0422042421
 C         10.0629483568       -1.0043052751       -0.0823459463
 C          8.8390321476       -0.2790291629       -0.0533834283
 N          7.5328164143       -0.6611731149        0.1476186733
 C          7.0169690848       -1.9334569620        0.4617302352
 C          6.1451132719       -2.5567371859       -0.4236895100
 C          5.5970504826       -3.7834505042       -0.0957250456
 C          5.9170399556       -4.3909336275        1.1069916603
 C          6.7890084716       -3.7701420072        1.9871267783
 C          7.3377379084       -2.5407915144        1.6722761244
 C          4.6128782501        1.3593835876       -0.7898026001
 C          3.2391300687        1.4102966442       -0.7520506598
 C          0.3419105159       -0.6151944097        0.0036621543
 C          1.0024475299       -1.8222401409       -0.2380967336
 C          0.3047700966       -3.0149837398       -0.4135036355
 C         -1.0723896057       -3.0122731628       -0.3982450842
 C         -1.7587802924       -1.8152540181       -0.2137305331
 C         -1.0839363972       -0.6111796737        0.0077117389
 C         -3.9643165750       -0.1290257225        1.0717969204
 C         -5.3414687022       -0.1660710736        1.0487865849
 C         -8.1412865816       -0.7319617527       -0.0999252814
 C         -7.4842996255       -2.0328874199       -0.0924673440
 C         -6.3850951238       -2.2857991067       -0.9119988416
 C         -5.7492696186       -3.5124253251       -0.8688093870
 C         -6.2020555296       -4.5029891249       -0.0138176157
 C         -7.3023970636       -4.2643902210        0.7941020255
 C         -7.9390808743       -3.0388514691        0.7593036810
 C        -10.6094798046       -2.4470633908       -0.9571174420
 C        -11.7622084582       -3.1953612252       -1.1031621653
 H        -13.8778849368       -3.2881410554       -0.7842012463
 H        -13.9924479810       -1.0424331145        0.2346362883
 H        -11.9267612399        0.2984007988        0.4940174185
 H         -9.7411813878        3.4269048080       -1.0532278064
 H         -9.3082201848        5.8589701108       -0.8758444266
 H         -7.3650244082        6.6684098611        0.4138601941
 H         -5.8924207882        5.0527434746        1.5565770943
 H         -6.3349446980        2.6505418771        1.4028029597
 H         -5.8893112057        1.8539857285       -1.6125521006
 H         -3.4266077174        1.9259711080       -1.5587320643
 H         -2.8259623038        3.0771398887        0.5323107375
 H         -1.6037941321        5.1757658397        0.8373718530
 H          0.8734282285        5.1635177878        0.8938331437
 H          2.0903605309        3.0589354052        0.6302666762
 H          2.6937123500       -0.7779280009        1.7650093468
 H          5.1288862690       -0.8556629371        1.7207626728
 H          8.9133660419        3.6874438651       -0.8389995718
 H         10.9896330689        5.0252806580       -1.1649331604
 H         13.1811299965        3.8959741473       -1.0377829338
 H         13.3328313192        1.5200232759       -0.6265012877
 H         13.3900296778       -0.4245437281       -0.4580969936
 H         13.4707298162       -2.8283015893       -0.1771161483
 H         11.3828287729       -4.1265166382        0.1035553305
 H          9.2301683002       -2.9723930337        0.1493347233
 H          5.9009138670       -2.0733620141       -1.3580609169
 H          4.9192181388       -4.2661688499       -0.7834779120
 H          5.4870673439       -5.3481155738        1.3600237818
 H          7.0388217981       -4.2414468518        2.9257954714
 H          8.0138340485       -2.0447601064        2.3535542102
 H          5.1691985553        1.9602385388       -1.4922883006
 H          2.7041396308        2.0379489236       -1.4498479325
 H          2.0792257087       -1.8358874659       -0.3074983050
 H          0.8512934896       -3.9319017706       -0.5770157131
 H         -1.6269179232       -3.9268923201       -0.5464900625
 H         -2.8370860890       -1.8221501777       -0.2588262905
 H         -3.4259250947       -0.6695712513        1.8360994615
 H         -5.8861593627       -0.7422764376        1.7819562331
 H         -6.0359638590       -1.5239932778       -1.5945269333
 H         -4.8980322813       -3.6952858908       -1.5087458759
 H         -5.7023246896       -5.4597513667        0.0202491865
 H         -7.6622093490       -5.0358069443        1.4590421678
 H         -8.7931062772       -2.8474533516        1.3925567009
 H         -9.6675689032       -2.8347056953       -1.3160004160
 H        -11.7107574416       -4.1716382873       -1.5637914331
