  52
 
 C         -5.6622872474        1.6509622466       -0.2680953177
 C         -4.9710876778        0.6298162551       -0.9145075759
 C         -3.6025080662        0.5536792621       -0.8452292120
 C         -2.8470846076        1.5063867900       -0.1128653718
 C         -1.4318164985        1.4391465986        0.0208555436
 C         -0.6670647744        2.6585025574        0.0513836997
 C          0.6766118328        2.6559603270       -0.0502039272
 C          1.4367305490        1.4337050200       -0.0199377611
 C          2.8522504249        1.4955284702        0.1137748717
 C          3.6040493727        0.5397921815        0.8459151737
 C          4.9729124056        0.6107037465        0.9151963475
 C          5.6679852474        1.6293442827        0.2689947401
 C          4.9527513627        2.5982377074       -0.4322322680
 C          3.5836013572        2.5489699375       -0.4967023457
 C          0.6868807061        0.1967440365       -0.0133972758
 C          1.4228063603       -1.0766364193       -0.0829195909
 C          1.2285590266       -2.0820374019        0.8640553002
 C          1.9263997194       -3.2704585773        0.7771923169
 C          2.8234241804       -3.4800059490       -0.2585885403
 C          3.0239656677       -2.4883018436       -1.2042143827
 C          2.3344142316       -1.2942195181       -1.1160794938
 C         -0.6866626481        0.1993485049        0.0140196449
 C         -1.4274130064       -1.0712528366        0.0832261671
 C         -1.2369535527       -2.0771452725       -0.8639949871
 C         -1.9392836170       -3.2629409527       -0.7774352627
 C         -2.8371108678       -3.4693487775        0.2582796573
 C         -3.0339226552       -2.4771234597        1.2041434836
 C         -2.3398579115       -1.2856350659        1.1163150805
 C         -3.5744252307        2.5624771806        0.4978334898
 C         -4.9433746216        2.6169740702        0.4333513117
 H         -6.7387568138        1.7031534049       -0.3216880447
 H         -5.5165037748       -0.1038486155       -1.4906933714
 H         -3.0866293359       -0.2070587060       -1.4083712849
 H         -1.1991959923        3.5972844582        0.0627678344
 H          1.2123013839        3.5927208561       -0.0613678444
 H          3.0852852222       -0.2191086275        1.4088932210
 H          5.5155333182       -0.1251593423        1.4912214412
 H          6.7446548211        1.6774179244        0.3225758959
 H          5.4837273345        3.3936400432       -0.9359144390
 H          3.0558216243        3.2859649269       -1.0830161303
 H          0.5415916639       -1.9171845236        1.6814390154
 H          1.7723192869       -4.0373019843        1.5224406906
 H          3.3652439499       -4.4118105743       -0.3259194817
 H          3.7221821616       -2.6456333819       -2.0134411600
 H          2.4868298809       -0.5243964158       -1.8590248558
 H         -0.5493597830       -1.9146859628       -1.6813303051
 H         -1.7880924844       -4.0301759640       -1.5228719623
 H         -3.3824471340       -4.3991155044        0.3253748372
 H         -3.7327439721       -2.6320135617        2.0133182071
 H         -2.4893782022       -0.5154233303        1.8594451756
 H         -3.0438539754        3.2973184852        1.0843225546
 H         -5.4713244538        3.4142803435        0.9371983777
