  46
 
 N         -8.1466032149        0.0046185691        0.0025906651
 C         -6.9945331933        0.0042561812        0.0010366689
 C         -5.5932419167        0.0038529305       -0.0008193345
 C         -4.8842283192        0.3979050239       -1.1520430752
 C         -3.5115363812        0.3980589029       -1.1508144774
 C         -2.8134998910        0.0028852653       -0.0045120331
 N         -1.3900127282        0.0018790544       -0.0062661016
 C         -0.7141437890        1.1960089531        0.0141063502
 C         -1.3883961840        2.4207241508        0.0759596100
 C         -0.6964829253        3.6073588748        0.0474039497
 C          0.7035794014        3.6060333365       -0.0539280013
 C          1.3931498698        2.4181165564       -0.0837641218
 C          0.7164564248        1.1946050521       -0.0234572097
 N          1.3900860852       -0.0007768642       -0.0039620186
 C          2.8135641869       -0.0021558225       -0.0027380702
 C          3.5097069760        0.3905071515        1.1455913902
 C          4.8823641185        0.3885534682        1.1497497556
 C          5.5933356737       -0.0047888413       -0.0005499883
 C          6.9945808990       -0.0060610912        0.0005323315
 N          8.1466946095       -0.0070937479        0.0014181681
 C          4.8834317340       -0.3968356755       -1.1519544629
 C          3.5107730157       -0.3962024888       -1.1499470734
 C          0.7142086694       -1.1949140492        0.0139640024
 C          1.3882989349       -2.4197164366        0.0760534146
 C          0.6964446327       -3.6062766035        0.0442427204
 C         -0.7033953552       -3.6048028949       -0.0610346335
 C         -1.3929042152       -2.4168725015       -0.0907431569
 C         -0.7163684880       -1.1934529552       -0.0267195947
 C         -3.5087776417       -0.3918491862        1.1436077263
 C         -4.8814427656       -0.3906893868        1.1485436799
 H         -5.4319102221        0.6971947434       -2.0327596377
 H         -2.9591197890        0.6964454232       -2.0297875154
 H         -2.4644922212        2.4231864928        0.1460997707
 H         -1.2310429650        4.5421208485        0.0957315757
 H          1.2399752578        4.5398002167       -0.1012212038
 H          2.4692557120        2.4185046518       -0.1538287077
 H          2.9557988923        0.6884554326        2.0237681700
 H          5.4285752384        0.6859222897        2.0320177228
 H          5.4304638206       -0.6952566072       -2.0333584653
 H          2.9576717336       -0.6931470085       -2.0289720353
 H          2.4642216849       -2.4222426599        0.1489562187
 H          1.2308286999       -4.5411268207        0.0929536106
 H         -1.2396177130       -4.5385173057       -0.1113701721
 H         -2.4688363505       -2.4171162431       -0.1635672815
 H         -2.9542053388       -0.6908212905        2.0210263029
 H         -5.4269760677       -0.6896665032        2.0306960415
