67

C     -6.823198    1.989346    1.459285
C     -6.913929    1.247468    0.120961
C     -6.825059    2.224274   -1.057034
C     -8.192800    0.409412    0.043665
C     -9.513462    0.834801    0.084300
C    -10.520875   -0.127726   -0.004845
C    -10.203262   -1.489611   -0.132188
C     -8.871544   -1.913770   -0.172704
C     -7.870378   -0.959860   -0.084355
C     -6.430758   -1.106238   -0.099020
C     -5.643292   -2.237332   -0.205030
C     -4.249040   -2.086934   -0.191955
C     -3.621470   -0.819644   -0.074295
C     -2.148419   -0.693057   -0.063549
N     -1.619335    0.541971    0.041687
C     -0.270492    0.624703    0.050680
C      0.586417   -0.456925   -0.043350
C      2.047312   -0.330854   -0.032478
C      2.701841    0.595613   -0.861783
C      4.095825    0.719961   -0.853183
C      4.865886   -0.087613   -0.011429
N      6.288145    0.035105   -0.000821
C      7.190710   -1.031648    0.006842
C      6.995343   -2.427723   -0.062873
C      8.112270   -3.268550   -0.055012
C      9.396410   -2.744615   -0.000130
C      9.591336   -1.362003    0.030673
C      8.478878   -0.491145    0.020564
C      8.356437    0.928845    0.009669
C      9.303321    1.977388    0.014960
C      8.874028    3.306138    0.041025
C      7.518452    3.602317    0.076124
C      6.562054    2.582600    0.068510
C      6.994667    1.240705    0.003538
C      4.233163   -1.016249    0.819840
C      2.838516   -1.132562    0.807609
C     -0.071059   -1.669233   -0.148582
N     -1.414119   -1.818770   -0.159455
C     -4.452249    0.314838    0.032035
C     -5.835949    0.165174    0.019119
H     -7.635984    2.716644    1.568184
H     -6.885345    1.299183    2.309645
H     -5.877032    2.535285    1.549650
H     -7.637861    2.959094   -1.028185
H     -6.888620    1.703452   -2.020360
H     -5.878923    2.777584   -1.046205
H     -9.763807    1.885919    0.182612
H    -11.563818    0.179060    0.024528
H    -11.003489   -2.222828   -0.200078
H     -8.637381   -2.968188   -0.271307
H     -6.082491   -3.224858   -0.296862
H     -3.635153   -2.983462   -0.276176
H      0.111706    1.637693    0.151393
H      2.131512    1.220958   -1.547378
H      4.560902    1.419416   -1.544526
H      6.003437   -2.861596   -0.141125
H      7.971631   -4.346092   -0.102194
H     10.255700   -3.410348    0.003114
H     10.599962   -0.958857    0.052115
H     10.366296    1.752972    0.009030
H      9.606555    4.109204    0.049650
H      7.194660    4.639785    0.119758
H      5.509442    2.840051    0.131433
H      4.800878   -1.626650    1.518844
H      2.373654   -1.847335    1.485395
H      0.480375   -2.601708   -0.242391
H     -4.017130    1.307029    0.124418
