52

N     -2.012778    6.228689   -0.522187
C     -1.406689    5.252725   -0.363655
C     -0.679251    4.030450   -0.170564
C     -1.352969    2.812312   -0.347428
C     -0.681479    1.586874   -0.181725
N     -1.386329    0.397032   -0.548773
C     -2.694701    0.066295   -0.184056
C     -3.600083    0.684113    0.702832
C     -4.855324    0.100422    0.895408
C     -5.201953   -1.076166    0.243464
C     -4.291280   -1.707066   -0.608078
C     -3.015886   -1.139267   -0.819377
C     -1.885980   -1.539518   -1.587341
C     -1.592189   -2.628551   -2.428640
C     -0.345914   -2.659034   -3.050297
C      0.535627   -1.614262   -2.827830
N      0.299727   -0.543141   -2.042793
C     -0.903986   -0.569555   -1.421879
C      0.681214    1.587005    0.181885
N      1.386283    0.397304    0.548934
C      2.694642    0.066722    0.184036
C      3.599807    0.684620   -0.703017
C      4.855047    0.101017   -0.895855
C      5.201883   -1.075553   -0.243989
C      4.291442   -1.706506    0.607762
C      3.016047   -1.138804    0.819311
C      1.886313   -1.539149    1.587482
C      1.592777   -2.628192    2.428855
C      0.346607   -2.658789    3.050713
C     -0.535103   -1.614141    2.828320
N     -0.299469   -0.543032    2.043183
C      0.904173   -0.569314    1.422128
C      1.352503    2.812559    0.347534
C      0.678589    4.030574    0.170591
C      1.405838    5.252984    0.363558
N      2.011772    6.229064    0.521969
H     -2.392397    2.830852   -0.677284
H     -3.334265    1.581888    1.252570
H     -5.564984    0.569730    1.573386
H     -6.182158   -1.517565    0.406065
H     -4.565173   -2.636443   -1.099647
H     -2.314826   -3.421137   -2.591907
H     -0.071683   -3.480569   -3.702894
H      1.512789   -1.613871   -3.305920
H      3.333806    1.582368   -1.252709
H      5.564531    0.570376   -1.573984
H      6.182070   -1.516907   -0.406812
H      4.565504   -2.635862    1.099275
H      2.315535   -3.420687    2.592032
H      0.072573   -3.480312    3.703407
H     -1.512182   -1.613859    3.306572
H      2.391931    2.831275    0.677372
