  80
 
 O          2.0835263598        3.0166103554       -0.1157215878
 C          2.2311264339        1.7818696493       -0.1171779255
 C          1.1227372286        0.8573970368       -0.1349473632
 C         -0.1620570304        1.3300073529        0.2083041278
 C         -1.2506075055        0.5042081064        0.1915807074
 C         -1.1291773204       -0.8444811690       -0.2005041275
 C         -2.2307798113       -1.7757068967       -0.1961615335
 O         -2.0782754933       -3.0089967326       -0.2364022440
 C         -3.6146888186       -1.2464231623       -0.1400662803
 C         -4.5718912694       -1.9526220346        0.5936971571
 C         -5.8710328134       -1.5069697677        0.6685396603
 C         -6.2632041365       -0.3582836501       -0.0259909620
 N         -7.5801771789        0.1041410276        0.0482335071
 C         -7.8362626951        1.4776791102        0.0673166957
 C         -8.9571900387        1.9978839955       -0.5821313372
 C         -9.2051659503        3.3560511019       -0.5576982936
 C         -8.3431972315        4.2154377938        0.1049600739
 C         -7.2269547209        3.7043538684        0.7483436817
 C         -6.9720751420        2.3475936369        0.7348946168
 C         -8.6362297409       -0.8085454336        0.1071438000
 C         -8.5766018366       -2.0047693776       -0.6103532920
 C         -9.6187240683       -2.9078170408       -0.5411732958
 C        -10.7338734293       -2.6352181714        0.2353671073
 C        -10.7989273374       -1.4480193794        0.9476827433
 C         -9.7609461563       -0.5395059967        0.8895334731
 C         -5.3223868402        0.3146229316       -0.8112168038
 C         -4.0193923737       -0.1278011893       -0.8722554465
 C          0.1547482375       -1.3142107748       -0.5534570072
 C          1.2441495430       -0.4898513132       -0.5312404247
 C          3.6099175923        1.2423069048       -0.0781881714
 C          3.9504084073        0.1153127835        0.6745128540
 C          5.2536253049       -0.3269607199        0.7231969307
 C          6.2598604407        0.3550808699        0.0325397599
 N          7.5808489490       -0.0997387948        0.0803138985
 C          8.6309368606        0.8194529586        0.1405723825
 C          8.4889578552        2.0080419955        0.8593332845
 C          9.5269509358        2.9170494173        0.9088210590
 C         10.7192000954        2.6581352804        0.2512462857
 C         10.8659466422        1.4787179458       -0.4618860932
 C          9.8332305397        0.5643740787       -0.5220565285
 C          7.8455713492       -1.4716145266        0.0790864809
 C          7.0567047272       -2.3412336536       -0.6763957644
 C          7.3183042830       -3.6967627625       -0.6717589329
 C          8.3668589496       -4.2069108378        0.0775682749
 C          9.1537291292       -3.3478551225        0.8282628541
 C          8.8981193753       -1.9909263483        0.8350365318
 C          5.9283815236        1.5076203949       -0.6870433697
 C          4.6274395074        1.9521957253       -0.7231737725
 H         -0.2561460693        2.3610527178        0.5153986417
 H         -2.2074481091        0.8841505467        0.5196769238
 H         -4.2634270503       -2.8393628502        1.1260316336
 H         -6.5932894079       -2.0328047971        1.2757408300
 H         -9.6213450128        1.3310801788       -1.1121008323
 H        -10.0729437483        3.7472950005       -1.0674681774
 H         -8.5395116687        5.2764355757        0.1192927863
 H         -6.5536669021        4.3666346652        1.2715214094
 H         -6.1097998228        1.9488505890        1.2483309983
 H         -7.7141364032       -2.2122467046       -1.2260882566
 H         -9.5628740884       -3.8277399054       -1.1035468158
 H        -11.5465474021       -3.3434080814        0.2858670690
 H        -11.6609128931       -1.2318209748        1.5610746822
 H         -9.8058843607        0.3778853746        1.4578247530
 H         -5.6295806205        1.1776646695       -1.3839486531
 H         -3.3135711008        0.3815912374       -1.5109060913
 H          0.2479171942       -2.3440535663       -0.8648183155
 H          2.2019284663       -0.8682804915       -0.8588171145
 H          3.1926679464       -0.3994768317        1.2456618097
 H          5.5101092807       -1.1948568907        1.3132840125
 H          7.5655774434        2.2046683446        1.3834546929
 H          9.4066562472        3.8307294037        1.4712816405
 H         11.5283985288        3.3708183481        0.2936051693
 H         11.7890270024        1.2731719700       -0.9831120219
 H          9.9433284563       -0.3469639463       -1.0911946403
 H          6.2479656732       -1.9429605913       -1.2709094355
 H          6.7040602067       -4.3588806243       -1.2633225945
 H          8.5686995059       -5.2669697333        0.0772981993
 H          9.9675382681       -3.7384849939        1.4208083901
 H          9.5021416152       -1.3246126675        1.4331827142
 H          6.7010664995        2.0386482770       -1.2236130004
 H          4.3655619765        2.8431782709       -1.2731249177
