  70
 
 C          2.3767022595        3.2157332448        0.2533460041
 C          3.5998315584        2.6100193705        0.4773428755
 C          3.7040343319        1.2387229147        0.2293044679
 N          4.9040914167        0.5585711281        0.3561324267
 C          5.0379880800       -0.7494192846        0.8116662708
 C          4.0654697992       -1.6616693951        1.1891324599
 C          4.4828872698       -2.9007508836        1.6391062558
 C          5.8329768290       -3.2305421501        1.7195775530
 C          6.8059993336       -2.3222221433        1.3527148567
 C          6.4086211389       -1.0732134193        0.8951872031
 C          7.1352803266        0.0775667943        0.4324590186
 C          8.4880421236        0.3284978543        0.2518789726
 C          8.8707212113        1.5430886856       -0.2820957748
 C          7.9179098236        2.4840008388       -0.6594372579
 C          6.5649103008        2.2551889111       -0.4845109796
 C          6.1740620986        1.0572056243        0.0958732142
 N          2.6531268275        0.5046457956       -0.1119763770
 C          1.4711502094        1.0812726967       -0.2766010119
 N          0.4306918618        0.2273758702       -0.6206473283
 C         -0.9170214386        0.3788182631       -0.3214276089
 C         -1.5560983396        1.2856046586        0.5137185695
 C         -2.9251613932        1.1878406541        0.6613508808
 C         -3.6703713295        0.2083854152       -0.0067849473
 N         -5.0614379543        0.1691906533        0.1636313473
 C         -5.8046108972       -0.9414907415        0.5119718269
 C         -5.3842612953       -2.2308270606        0.8055998321
 C         -6.3465757935       -3.1581240501        1.1560802060
 C         -7.6960829498       -2.8180535839        1.2229341633
 C         -8.1177505916       -1.5317578774        0.9532540787
 C         -7.1691073683       -0.5813853794        0.5988891175
 C         -7.2441384839        0.8163670802        0.2788202846
 C         -8.2941877130        1.7198002287        0.1817551346
 C         -8.0152034227        3.0226943953       -0.1791934244
 C         -6.7105825325        3.4252264048       -0.4564024069
 C         -5.6494230892        2.5450873317       -0.3663804622
 C         -5.9202977652        1.2398153861        0.0189966760
 C         -3.0348258291       -0.7287373410       -0.8080468220
 C         -1.6579284170       -0.6504853726       -0.9457945852
 C         -0.7061327602       -1.4793741271       -1.6315822842
 N         -0.9083876816       -2.5714087114       -2.3531024787
 C          0.1660781948       -3.1459418735       -2.8591050289
 C          1.4647344859       -2.6704081130       -2.6815196066
 C          1.6911528616       -1.5281948368       -1.9313143692
 C          0.5719562998       -0.9181893753       -1.3874875090
 C          1.2910862670        2.4597448889       -0.1551653975
 H          2.2675177864        4.2806404570        0.3977934636
 H          4.4397299648        3.1708329248        0.8502414857
 H          3.0184998944       -1.4159691368        1.1238273115
 H          3.7422602958       -3.6298197476        1.9326530608
 H          6.1188961596       -4.2097106435        2.0739591413
 H          7.8540907361       -2.5723226495        1.4178164587
 H          9.2210862241       -0.4185405918        0.5155899773
 H          9.9178401019        1.7613452801       -0.4287201291
 H          8.2394117981        3.4129311249       -1.1066782381
 H          5.8455840088        2.9851848594       -0.8213863617
 H         -1.0090455698        2.0291396014        1.0712379603
 H         -3.4389684072        1.8690915347        1.3227635637
 H         -4.3399331385       -2.5015386961        0.7710381965
 H         -6.0451194773       -4.1695139380        1.3857198372
 H         -8.4176233409       -3.5731092037        1.4977537685
 H         -9.1615727516       -1.2637503047        1.0187133822
 H         -9.3070645971        1.4037177743        0.3811163618
 H         -8.8170953833        3.7416734407       -0.2583794211
 H         -6.5251216776        4.4475338007       -0.7520684672
 H         -4.6441243663        2.8619272311       -0.6007175788
 H         -3.5869775942       -1.5013291061       -1.3179397746
 H         -0.0175923870       -4.0393208534       -3.4406887648
 H          2.2938393433       -3.1973277575       -3.1275146463
 H          2.6840129648       -1.1412271420       -1.7675303689
 H          0.3475535487        2.9211903723       -0.3907472541
