  112
 
 C        -12.9107385223        2.7695681602        1.0206258572
 C        -11.6512747571        2.7388362348        1.5980593869
 C        -10.7864811156        1.6938861279        1.3359783219
 C        -11.1707837769        0.6620020784        0.4787903279
 N        -10.2986645353       -0.3997814380        0.2095316972
 C        -10.8044094003       -1.6990665585        0.0709488197
 C        -10.2758825111       -2.5622490027       -0.8892903079
 C        -10.7736654324       -3.8442738076       -1.0208007562
 C        -11.8062339985       -4.2828182671       -0.2070102981
 C        -12.3377638375       -3.4273665556        0.7450926245
 C        -11.8422786250       -2.1456799637        0.8890866915
 C         -8.9289517838       -0.1701122955        0.0882692296
 C         -8.0044661683       -1.1122215214        0.5498704967
 C         -6.6528168950       -0.8845992221        0.4273223931
 C         -6.1629262952        0.2966223502       -0.1430221366
 C         -4.7271066371        0.5371102964       -0.2508557900
 C         -3.9026551709       -0.3930059309       -0.9430151498
 C         -4.4551409938       -1.4855356175       -1.6372868298
 C         -3.6723301243       -2.3453366350       -2.3780295650
 C         -2.3069244074       -2.1144999438       -2.4883710566
 C         -1.7396899312       -1.0339082013       -1.8447406900
 C         -2.4973409731       -0.1730326755       -1.0351127404
 C         -1.9088087219        0.9775871501       -0.4206438905
 C         -0.4882602887        1.2184104235       -0.5205186089
 C         -0.0370594789        2.4235003548       -1.0898622787
 C          1.2891811340        2.6552013313       -1.3302203382
 C          2.2720923115        1.7132782204       -0.9550786824
 C          3.6409211520        1.9103160632       -1.2208025707
 C          4.5815450335        1.0061132424       -0.8132872832
 C          4.2211820710       -0.1504097554       -0.0811341327
 C          5.1801920117       -1.0824826348        0.3908341933
 C          6.6195791044       -0.8374744104        0.2951418751
 C          7.4801467242       -1.8294276993       -0.1817332118
 C          8.8403301807       -1.6224671897       -0.2504784676
 C          9.3966995879       -0.4158702273        0.1809103301
 N         10.7753301616       -0.2040920088        0.1207646203
 C         11.2772190138        1.0686930954       -0.1788989017
 C         10.6388104973        1.8769762143       -1.1200998563
 C         11.1346666583        3.1336009800       -1.4093544913
 C         12.2745151152        3.6015460540       -0.7751324410
 C         12.9158153805        2.8005041198        0.1563244277
 C         12.4231226522        1.5455164000        0.4583015960
 C         11.6597133667       -1.2627958569        0.3632283561
 C         12.8384633103       -1.3820428858       -0.3735081084
 C         13.7096975431       -2.4258704710       -0.1281183808
 C         13.4194854295       -3.3690196717        0.8448913916
 C         12.2487855447       -3.2565047633        1.5778916823
 C         11.3751251727       -2.2117919817        1.3456251372
 C          8.5446330018        0.5725952168        0.6800728745
 C          7.1838159115        0.3655773355        0.7289166242
 C          4.7440343059       -2.2621515639        0.9975117925
 C          3.4106140035       -2.5103823101        1.2164568649
 C          2.4328701550       -1.5817084181        0.8159049259
 C          1.0589624979       -1.7786636253        1.0772257298
 C          0.1218896280       -0.8805421354        0.6550122186
 C          0.4845247972        0.2694108400       -0.0814031967
 C          1.8626389470        0.5243595373       -0.2994155642
 C          2.8407098803       -0.4031131229        0.1426733730
 C         -2.7466594909        1.9227861929        0.2487609091
 C         -2.2021366261        3.0138857977        0.9449692208
 C         -2.9966407463        3.9032465841        1.6416536825
 C         -4.3674710554        3.6952436067        1.7117067526
 C         -4.9272158186        2.5970675446        1.0924193073
 C         -4.1531067656        1.6988844502        0.3348939332
 C         -7.0959547421        1.2347491789       -0.6004916268
 C         -8.4493217815        1.0058467789       -0.4966689049
 C        -12.4384743345        0.6996754208       -0.1029632083
 C        -13.2988522034        1.7450859110        0.1717602783
 H        -13.5849041456        3.5861525101        1.2306768321
 H        -11.3426661171        3.5298862233        2.2658476640
 H         -9.8106735254        1.6653234390        1.7985101216
 H         -9.4789089384       -2.2172065514       -1.5319139815
 H        -10.3581225568       -4.5022262049       -1.7700565874
 H        -12.1941368894       -5.2846081974       -0.3141904854
 H        -13.1393042247       -3.7629922422        1.3867847356
 H        -12.2508126844       -1.4835063559        1.6385070427
 H         -8.3598682334       -2.0175378713        1.0202053403
 H         -5.9526500030       -1.6100856048        0.8157088496
 H         -5.5227133063       -1.6404877719       -1.6059924692
 H         -4.1260520564       -3.1813893946       -2.8904493623
 H         -1.6902647542       -2.7649017757       -3.0915364526
 H         -0.6852507444       -0.8418096601       -1.9728288172
 H         -0.7751326679        3.1413774166       -1.4205609936
 H          1.6011082471        3.5590377848       -1.8345036118
 H          3.9393659193        2.7975175635       -1.7623301899
 H          5.6203626333        1.1660478537       -1.0596611669
 H          7.0663076452       -2.7624452841       -0.5360420059
 H          9.4854730678       -2.3925522900       -0.6479249832
 H          9.7568155336        1.5095820537       -1.6242171674
 H         10.6317359996        3.7481252703       -2.1418951137
 H         12.6604777455        4.5831873671       -1.0053401948
 H         13.8023775419        3.1589378179        0.6589198987
 H         12.9192970242        0.9273021272        1.1923001067
 H         13.0620663319       -0.6541360040       -1.1398153020
 H         14.6177107302       -2.5081809525       -0.7075968997
 H         14.1012688214       -4.1850947309        1.0313780726
 H         12.0171797042       -3.9829838813        2.3432093641
 H         10.4685253457       -2.1198569420        1.9258740538
 H          8.9631951639        1.5008006373        1.0413316645
 H          6.5446748508        1.1294540184        1.1476284690
 H          5.4835193107       -2.9718771707        1.3419878478
 H          3.0984943559       -3.4156907711        1.7174000552
 H          0.7589373641       -2.6595233819        1.6275683371
 H         -0.9217332914       -1.0452201661        0.8795183356
 H         -1.1318273624        3.1532627379        0.9509117732
 H         -2.5452620245        4.7421901301        2.1511577249
 H         -4.9931407991        4.3741565734        2.2731000895
 H         -5.9838736386        2.4107006703        1.2075543612
 H         -6.7432170253        2.1360251828       -1.0808000424
 H         -9.1514243343        1.7316678587       -0.8806167952
 H        -12.7396515793       -0.0923911616       -0.7728930512
 H        -14.2766766283        1.7636457677       -0.2869461740
