  70
 
 N         -9.9962995119        3.2590344049        2.3258684892
 C         -9.1463020003        2.6111530789        1.9102912902
 C         -8.0982667209        1.8072117558        1.4049779357
 C         -7.9235492516        0.4997507594        1.8695678600
 C         -6.8830407744       -0.2614717206        1.3887023871
 C         -5.9888745981        0.2421315531        0.4365169957
 N         -4.9290058505       -0.5580203730        0.0260045036
 C         -5.0512766225       -1.8356178603       -0.5039439470
 C         -6.1963900188       -2.5538722500       -0.8089730099
 C         -6.0368322611       -3.8069038438       -1.3732234908
 C         -4.7730148484       -4.3280712251       -1.6379769451
 C         -3.6305038143       -3.6049799728       -1.3531581060
 C         -3.7656603124       -2.3461770182       -0.7829436339
 C         -2.8230152798       -1.3389385553       -0.3723136555
 C         -1.4382308417       -1.2846722161       -0.3570859266
 C         -0.8090384266       -0.1550371959        0.1527568830
 C          0.6598721750       -0.0603594044        0.1729918922
 C          1.4306121907       -1.1687104027        0.5469848720
 C          2.8101521777       -1.1201860656        0.5938255324
 C          3.4272760430        0.0743178217        0.2576618817
 C          2.6731352030        1.1958664897       -0.1471073674
 C          1.2892358367        1.1271086246       -0.1821990666
 C          3.6168983954        2.2372350089       -0.4571382758
 C          3.4803251965        3.5570555537       -0.8648453774
 C          4.6208540332        4.3191055838       -1.0315390922
 C          5.8816099243        3.7881791488       -0.7737135738
 C          6.0418206981        2.4762120975       -0.3650378074
 C          4.9027797842        1.6984270574       -0.2368777797
 N          4.7784379670        0.3811074045        0.1832759260
 C          5.8108342867       -0.4779088678        0.5416342301
 C          5.8101588599       -1.0293277455        1.8285244288
 C          6.8268501648       -1.8509173370        2.2579771043
 C          7.8900010939       -2.1453625764        1.3984058585
 C          8.9542373397       -2.9679784386        1.8349347240
 N          9.8143668023       -3.6347743902        2.1962614869
 C          7.8921248580       -1.6379931561        0.1021961991
 C          6.8543138261       -0.8246798407       -0.3327936712
 C          6.8963267111       -0.4138359221       -1.7802642549
 F          7.3282328197       -1.4300514298       -2.5567981362
 F          5.7187205099       -0.0455341080       -2.2969453834
 F          7.7546208531        0.6000325311       -2.0192399660
 C         -1.5804408434        0.8948710115        0.6671392253
 C         -2.9608012246        0.8568431396        0.6708815239
 C         -3.5790221850       -0.2540240300        0.1204856806
 C         -6.2064838304        1.5363390299       -0.0652347585
 C         -5.4036939931        2.1374632540       -1.1877309703
 F         -6.1985090058        2.8259675130       -2.0337782950
 F         -4.4844582912        3.0306538792       -0.7643113048
 F         -4.7505684469        1.2536259799       -1.9505675471
 C         -7.2433006336        2.3150494501        0.4308564398
 H         -8.5953206650        0.1016499549        2.6145499763
 H         -6.7232647141       -1.2613463493        1.7618529130
 H         -7.1807973568       -2.1518246344       -0.6224318231
 H         -6.9120730817       -4.3903838132       -1.6172071363
 H         -4.6892718743       -5.3097680912       -2.0798653331
 H         -2.6519679225       -4.0037740021       -1.5726795281
 H         -0.8579826603       -2.1042303835       -0.7520409902
 H          0.9285558089       -2.0828968068        0.8256921629
 H          3.3822305125       -1.9897069194        0.8802539484
 H          0.7095006963        1.9782378172       -0.5049375399
 H          2.5015271666        3.9761752817       -1.0413521912
 H          4.5369966363        5.3465157065       -1.3530655621
 H          6.7550661399        4.4121646390       -0.8903571300
 H          7.0246070122        2.0842435865       -0.1501391322
 H          4.9991795563       -0.7751737946        2.4934294141
 H          6.8187027185       -2.2563412031        3.2581800446
 H          8.6940488960       -1.8928460139       -0.5749732491
 H         -1.0802057139        1.7495347395        1.0971351745
 H         -3.5287906714        1.6685262706        1.1000752376
 H         -7.3979576461        3.3119038301        0.0448997363
