  90
 
 C          9.4406133604       -2.1748331813       -0.9742168519
 C          8.8431905576       -1.3272708040        0.1638269373
 C          9.8121302884       -1.2802597877        1.3593992366
 C          8.6299307601        0.0845238997       -0.3471951914
 C          9.7159288428        0.8115269259       -0.8153291944
 C          9.5812805008        2.0912410253       -1.3203708384
 C          8.3240869807        2.6642977992       -1.3797135424
 C          7.2283905462        1.9652001619       -0.9194792172
 C          7.3657317127        0.6819443976       -0.3815674351
 N          6.2464083123        0.0077237436        0.0837484579
 C          4.9902842426        0.6635669477        0.0653899250
 C          4.7204148992        1.6797368448        0.9763219170
 C          3.4963422036        2.3172102065        0.9601139851
 C          2.5145160738        1.9386008861        0.0465650296
 C          1.2148191570        2.6193741002        0.0449376685
 C          1.1350860221        4.0114904521        0.0627088924
 N          0.0000949226        4.6825751585        0.0388238314
 C         -1.1337286255        4.0099825437        0.0040618945
 C         -1.2108654405        2.6176367670       -0.0005443095
 C         -2.5095684122        1.9349895673       -0.0147053516
 C         -3.4886783014        2.3244321606       -0.9266174398
 C         -4.7127398336        1.6874661851       -0.9537960135
 C         -4.9857911204        0.6611812315       -0.0551210045
 N         -6.2438358663        0.0095960553       -0.0823323576
 C         -7.3626062422        0.6864166560        0.3809508233
 C         -7.2220164706        1.9649526246        0.9292532233
 C         -8.3170048481        2.6670084026        1.3866071073
 C         -9.5769620828        2.1015700487        1.3142488570
 C         -9.7149904373        0.8259406478        0.7999356481
 C         -8.6297318688        0.0960819249        0.3344775561
 C         -8.8471260051       -1.3114077025       -0.1864810005
 C         -9.8082273804       -1.2523863403       -1.3878389897
 C         -9.4561152383       -2.1624210294        0.9428336314
 C         -7.5498446742       -1.9547030925       -0.6378749556
 C         -7.5711097585       -3.2481939561       -1.1420067737
 C         -6.4278976551       -3.8787568815       -1.5956650108
 C         -5.2241786562       -3.1986248133       -1.5639972759
 C         -5.1743656563       -1.9129828560       -1.0681435784
 C         -6.3245013294       -1.2829069961       -0.5840144883
 C         -4.0188567834        0.2820070581        0.8697551211
 C         -2.7894744019        0.9097733187        0.8858929349
 C          0.0025654909        1.9115322576        0.0166696273
 C          0.0028518429        0.4952708093        0.0055440518
 N          0.0024236987       -0.6513651596       -0.0036591968
 C          2.7922528085        0.9250048867       -0.8678438480
 C          4.0212571309        0.2964538169       -0.8621334587
 C          6.3232923384       -1.2882527464        0.5767875878
 C          5.1725309763       -1.9155337037        1.0630422859
 C          5.2186063931       -3.2042563068        1.5512012841
 C          6.4191593561       -3.8903335869        1.5728309127
 C          7.5630203983       -3.2629242931        1.1164246736
 C          7.5454635966       -1.9665352067        0.6196629123
 H         10.3841149809       -1.7581721758       -1.3156087648
 H          9.6186810380       -3.1951421023       -0.6463393331
 H          8.7518006358       -2.2001774633       -1.8165997871
 H         10.0057384233       -2.2785332137        1.7418846957
 H          9.3812499238       -0.6834042233        2.1612346648
 H         10.7611413568       -0.8355267271        1.0728590484
 H         10.7005174401        0.3695969299       -0.7893832460
 H         10.4478331788        2.6295107330       -1.6727428236
 H          8.1918428407        3.6555088499       -1.7873627440
 H          6.2496178379        2.4154909059       -0.9832443129
 H          5.4770555153        1.9638499063        1.6924397804
 H          3.2849278717        3.0958153835        1.6784000819
 H          2.0366860139        4.6091882714        0.0759675481
 H         -2.0364601647        4.6061178710        0.0002410101
 H         -3.2751478267        3.1117650401       -1.6346941667
 H         -5.4673570115        1.9803105175       -1.6685391056
 H         -6.2413081033        2.4092886345        1.0036624296
 H         -8.1819627691        3.6543397544        1.8026344874
 H        -10.4429787649        2.6422626045        1.6642600581
 H        -10.7017636001        0.3896005062        0.7642276971
 H        -10.7570477617       -0.8052908858       -1.1043495113
 H        -10.0038580726       -2.2472912794       -1.7779979128
 H         -9.3696981509       -0.6522915424       -2.1830850921
 H         -8.7721982118       -2.1974616601        1.7888432607
 H         -9.6387321892       -3.1794616305        0.6074347858
 H        -10.3989016525       -1.7420459010        1.2816448180
 H         -8.5071294512       -3.7841602673       -1.1870566082
 H         -6.4799622073       -4.8866641245       -1.9781362106
 H         -4.3203372575       -3.6643749431       -1.9268273445
 H         -4.2312451182       -1.3888538952       -1.0597209198
 H         -4.2367797122       -0.5098413510        1.5703930723
 H         -2.0504216084        0.6176516236        1.6168811577
 H          2.0515117107        0.6423550036       -1.6008117383
 H          4.2370484002       -0.4872750627       -1.5724679236
 H          4.2319344866       -1.3867940568        1.0623362761
 H          4.3143734239       -3.6676478836        1.9160758319
 H          6.4682487978       -4.9006420829        1.9492719868
 H          8.4965064324       -3.8039591314        1.1529081647
