72
 xtb: 6.7.1 (edcfbbe)
C           -7.17765287928546        0.00512992685706        1.21884001341510
C           -6.28525102334326       -0.00021870088337       -0.03678178022034
C           -7.15610104333550       -0.00429960397158       -1.30732435514842
C           -5.43616329356544       -1.25832954387656       -0.02514240639895
C           -6.05423643980362       -2.50151728703100       -0.03206701197248
C           -5.33314987976126       -3.68179254140732       -0.02868431364825
C           -3.95073989787017       -3.62977666709786       -0.02268183457343
C           -3.31015079939455       -2.40814360048960       -0.01537918654679
C           -4.03789703944300       -1.21445122836141       -0.01105591262930
N           -3.36515821056882       -0.00228136727755       -0.00047024390512
C           -1.94307710918272       -0.00279318358310        0.01452647804187
C           -1.23441644924171        0.10543468848309       -1.18108670161490
C            0.14724632958142        0.11068807659190       -1.16705270321350
C            0.83146278117262       -0.00044503873406        0.04281918190559
C            2.31061081825997        0.00197580908382        0.05802456007310
C            3.02318591089276       -1.20191730271611        0.07177799818130
C            2.28435475960484       -2.40170403427233        0.00841941442907
N            1.63060411998401       -3.34161954334452       -0.07604034780098
C            4.43542056875404       -1.15576746190962        0.04865731491280
C            5.26994379036459       -2.35955369870861        0.04587404969234
C            4.90976326592374       -3.50641798558847        0.75162759701485
C            5.72750487556056       -4.62117923908634        0.72735989804679
C            6.90825345900024       -4.60655075876279        0.00237049129427
C            7.28144991374987       -3.46360259185857       -0.68803394934162
C            6.47308628629916       -2.34445151771535       -0.66150282729592
N            5.07866404666773        0.00139470279104        0.01228564308868
C            4.43532503990798        1.15847188079103        0.03194755040678
C            5.27056795186940        2.36189270673737        0.02703327974987
C            4.90917595656694        3.50942751988049        0.73105212886029
C            5.72904360072135        4.62269786999748        0.71038229240815
C            6.91306538891176        4.60571362481411       -0.00918661315851
C            7.28692296222060        3.46225362333080       -0.69838241151133
C            6.47648082927464        2.34447396498552       -0.67531136095267
C            3.02283296132056        1.20599122244307        0.04373010932407
C            2.28801801389417        2.40730435793528       -0.03618600358242
N            1.64239677373074        3.35214282686549       -0.13367728577857
C            0.12228947913536       -0.11524313433360        1.23836379668486
C           -1.25951956154849       -0.11165676488452        1.22454403805229
C           -4.03629077036949        1.21108596526467       -0.01195064867517
C           -3.30745253730755        2.40401661769784        0.00754457617001
C           -3.94651323242634        3.62642270024036       -0.00396229634463
C           -5.32856167079169        3.68012709254856       -0.03261167691052
C           -6.05094365836379        2.50070129662571       -0.04428058192449
C           -5.43443638071280        1.25676792829027       -0.03292735789510
H           -7.81356362014689       -0.87911065080523        1.24295982659754
H           -7.81371249476598        0.88201346602741        1.24074255371743
H           -6.55846161151835        0.00268863925846        2.11444998998121
H           -7.79148333439396        0.87925469384119       -1.34244070586982
H           -6.52157647583217       -0.00242277392966       -2.19221718260784
H           -7.79197624714098       -0.88149682185179       -1.34052086993564
H           -7.13104833172617       -2.55753758403909       -0.04829304139166
H           -5.84501646205219       -4.63099759060220       -0.03652180235685
H           -3.36366683169199       -4.53628574979973       -0.01194269065126
H           -2.23019155226653       -2.37440981498246        0.00242468149843
H           -1.77029420334386        0.05176638851047       -2.11820298671912
H            0.69772072330538        0.05367766071068       -2.09671720227772
H            4.00410873932259       -3.52223521062361        1.33216035910911
H            5.44102486226186       -5.50411311177489        1.27292934705959
H            7.54207119353083       -5.48136690139783       -0.02133747617795
H            8.20791986679652       -3.44448628589490       -1.24949727105259
H            6.75264341346289       -1.44883747172318       -1.19973211831204
H            4.00355841399299        3.52297670535624        1.32662540157284
H            5.44143626538835        5.50428087120821        1.26924195971133
H            7.54365818256507        5.48089515756923       -0.02313066038860
H            8.20953814145201        3.44414571813067       -1.25145294181207
H            6.75341940255516        1.44906590245676       -1.20340271521434
H            0.65348215854555       -0.05535298447221        2.17925442873469
H           -1.81428483164820       -0.05393932161919        2.15055632349754
H           -2.22953366572642        2.37298334802656        0.01524969515144
H           -3.36225754300059        4.53516989489035       -0.00270537435115
H           -5.84341848749770        4.63070325738142       -0.03957380793471
H           -7.13009563565624        2.55765643344621       -0.05439523857002
