  93
 
 C         11.4136328967       -0.3181429796        0.5521490699
 C         10.2920249860       -0.0915567682       -0.4791684642
 C         10.8733730458       -0.0839387386       -1.9057973695
 C          9.6470895825        1.2555479956       -0.2160495651
 C         10.4207020535        2.4064733069       -0.2985090966
 C          9.8853070248        3.6678665601       -0.1177082622
 C          8.5294112452        3.7955847073        0.1250090948
 C          7.7390520334        2.6688252993        0.2145073838
 C          8.2865850160        1.3889751793        0.0794501520
 N          7.4658599001        0.2704916530        0.1932398178
 C          6.1113930054        0.4457140830        0.5519881539
 C          5.0979206242        0.1433979629       -0.3572473706
 C          3.7732607913        0.2996497359       -0.0046951749
 C          3.4345356630        0.7702644202        1.2661955124
 C          2.0354607058        0.9741165140        1.6861740127
 O          1.7238594112        1.7795390748        2.5491081507
 C          0.9986480899        0.1439860890        1.0159794765
 C          1.1857183426       -1.2059306248        0.7217795812
 C          0.1503227158       -1.9073988468        0.1320162077
 C         -1.0506593341       -1.2461655927       -0.1285192549
 C         -2.1619999936       -1.9904814214       -0.7949786718
 O         -1.9052485505       -2.9656716366       -1.4868903996
 C         -3.5371109662       -1.5016802156       -0.6101063154
 C         -4.4872527233       -1.8377670635       -1.5803793551
 C         -5.7924723583       -1.4133176721       -1.4667674184
 C         -6.1840284755       -0.6517589699       -0.3655451383
 N         -7.5208971728       -0.2120393110       -0.2423498646
 C         -8.5283053905       -1.1496259110       -0.0386639183
 C         -8.2005360874       -2.5009542732        0.1129347653
 C         -9.1782509778       -3.4552703796        0.3010229471
 C        -10.5078801325       -3.0774058369        0.3567607032
 C        -10.8315462238       -1.7376254277        0.2519333019
 C         -9.8669602150       -0.7560954169        0.0626510551
 C        -10.2918360014        0.6985379604        0.0053394208
 C        -10.9815952833        1.0588563178        1.3349058088
 C        -11.2681233029        0.8860931017       -1.1712772371
 C         -9.1078723954        1.6241883229       -0.1977662399
 C         -9.3248674539        2.9937496400       -0.2819114604
 C         -8.2964026864        3.8894040465       -0.5065155563
 C         -7.0106842840        3.4089125994       -0.6794532514
 C         -6.7670950754        2.0537481454       -0.5993091356
 C         -7.7988933750        1.1487843304       -0.3296490892
 C         -5.2464981497       -0.3335958992        0.6163684243
 C         -3.9376756222       -0.7525915684        0.4982331488
 N         -1.2312468226        0.0424995388        0.1548713026
 C         -0.2425644311        0.7092791404        0.7083026120
 C          4.4544432547        1.0980888671        2.1638937272
 C          5.7770806587        0.9286419313        1.8174737744
 C          7.9546688917       -1.0157991872       -0.0166421335
 C          7.1136790439       -2.1190147000        0.1606689400
 C          7.5662203206       -3.4039731645       -0.0546622970
 C          8.8780147061       -3.6165032544       -0.4383815898
 C          9.7233179433       -2.5312616433       -0.5734509412
 C          9.2937376662       -1.2272532856       -0.3617546733
 H         11.9109690003       -1.2688363130        0.3817422429
 H         10.9979287157       -0.3239540045        1.5584538531
 H         12.1583919612        0.4706015042        0.4935090354
 H         11.6172185331        0.6997396342       -2.0176773841
 H         10.0789303985        0.0907429319       -2.6295675613
 H         11.3451436820       -1.0347092655       -2.1372615888
 H         11.4749199596        2.3209887690       -0.5133320745
 H         10.5171704522        4.5408390819       -0.1822577541
 H          8.0810717431        4.7714508520        0.2401514544
 H          6.6799196444        2.7848316558        0.3843273579
 H          5.3614844413       -0.2098905354       -1.3430937629
 H          3.0007030570        0.0882728525       -0.7285334892
 H          2.1157909012       -1.6971688425        0.9667070531
 H          0.2422768166       -2.9520453904       -0.1220008308
 H         -4.1693727468       -2.4217254222       -2.4316452910
 H         -6.5188661210       -1.6627580181       -2.2258585611
 H         -7.1663731032       -2.8073605427        0.0918593472
 H         -8.8967429611       -4.4925330514        0.4085524879
 H        -11.2841174400       -3.8146184626        0.4968231791
 H        -11.8701276905       -1.4524337308        0.3224982462
 H        -10.2873302297        0.9193923820        2.1619623877
 H        -11.8494669736        0.4281650417        1.5056476362
 H        -11.3089467253        2.0947458701        1.3332157320
 H        -11.6078314964        1.9160541247       -1.2338254511
 H        -10.7741231138        0.6302458589       -2.1071601078
 H        -12.1393245654        0.2471545496       -1.0574482949
 H        -10.3273783139        3.3785393105       -0.1729874208
 H         -8.5002656932        4.9482568428       -0.5607149960
 H         -6.1938271523        4.0856981232       -0.8826036134
 H         -5.7629771082        1.6919022061       -0.7556483657
 H         -5.5580551794        0.2409207628        1.4760245852
 H         -3.2304471043       -0.5152855688        1.2759281655
 H         -0.4293565537        1.7545987014        0.9181748362
 H          4.1815016693        1.4685669338        3.1409326431
 H          6.5625615399        1.1683695456        2.5184517532
 H          6.0938862196       -1.9702564337        0.4790516517
 H          6.8926606435       -4.2369055964        0.0839325481
 H          9.2444788296       -4.6163252042       -0.6160926499
 H         10.7511049307       -2.7116628873       -0.8490382994
