  104
 
 O         -0.0038616860        6.3564772262        0.2241064307
 C          0.0034569587        5.0992178075        0.1910568824
 C          1.1597723396        4.2239786021        0.2143878915
 C          2.5161640919        4.5316036773        0.2698978870
 C          3.4378594426        3.5077134832        0.2597929934
 C          3.0144531222        2.1694612385        0.1985625990
 N          3.9994662278        1.1373793105        0.1800911453
 C          4.6762545890        0.8863265793       -0.9959648652
 C          4.3549948290        1.6005370907       -2.1593322258
 C          5.0291901940        1.3668922894       -3.3374780653
 C          6.0357923331        0.4122898417       -3.3899410492
 C          6.3457703152       -0.3112822881       -2.2534660437
 C          5.6788030011       -0.0927434127       -1.0567987232
 C          6.0407410079       -0.9280206570        0.1423060584
 C          5.8994662155       -2.4072269204       -0.1829409211
 C          4.7581081688       -3.0954094800       -0.5297387198
 C          4.8599732243       -4.4560560981       -0.7910560340
 C          6.0822015779       -5.1055771673       -0.7060153969
 C          7.2324833075       -4.4152385425       -0.3570948035
 C          7.1375712414       -3.0582665017       -0.0940025762
 C          8.1480623354       -2.0830820771        0.2892723485
 C          9.5093311387       -2.2178770225        0.5089677432
 C         10.2371417729       -1.0953905216        0.8720965432
 C          9.6201041967        0.1384544776        1.0137852862
 C          8.2556479299        0.2804890337        0.7945778120
 C          7.5301683515       -0.8330816491        0.4336642757
 C          5.2383827677       -0.5719645138        1.3651526379
 C          5.4779847988       -1.2570217681        2.5475738869
 C          4.7830274060       -0.9565290871        3.7042163738
 C          3.8335764546        0.0562050084        3.6860604152
 C          3.5785626501        0.7476277697        2.5223910849
 C          4.2673487589        0.4401395134        1.3403592127
 C          1.6685380105        1.8391751934        0.1529781460
 C          0.7321510349        2.8597907324        0.1604107943
 C         -0.6993511795        2.8529418370        0.1017007845
 C         -1.6234136072        1.8229169791        0.0470078918
 C         -2.9731077672        2.1390360138        0.0006747992
 N         -3.9479969364        1.1004441864       -0.0556179543
 C         -4.1370149371        0.4113165063       -1.2372097342
 C         -3.3565678314        0.7099656000       -2.3634005761
 C         -3.5301781514        0.0223560092       -3.5442257199
 C         -4.4893829908       -0.9767510817       -3.6376338336
 C         -5.2785199027       -1.2641980397       -2.5397805601
 C         -5.1209639608       -0.5833882048       -1.3411106264
 C         -6.0356624238       -0.9150778563       -0.1926040571
 C         -6.0058394289       -2.4041579139        0.1144625865
 C         -4.9387170268       -3.1616863250        0.5436797181
 C         -5.1387549260       -4.5176924318        0.7700669328
 C         -6.3833612283       -5.0949218008        0.5681258286
 C         -7.4592925310       -4.3347623012        0.1366974665
 C         -7.2665788322       -2.9816643270       -0.0903930827
 C         -8.1853825555       -1.9439596069       -0.5353100255
 C         -9.5293970853       -1.9965728498       -0.8672564927
 C        -10.1610620281       -0.8281721409       -1.2639357104
 C         -9.4662582896        0.3701398591       -1.3295608206
 C         -8.1183435459        0.4296777433       -0.9984533802
 C         -7.4886783071       -0.7295007915       -0.6029580166
 C         -5.7281847769       -0.1179184481        1.0465955454
 C         -6.4754256817       -0.3449480826        2.1932575234
 C         -6.2186560532        0.3428813036        3.3645567234
 C         -5.1829243001        1.2665606937        3.3997365236
 C         -4.4306553186        1.5093716308        2.2717813529
 C         -4.7007485680        0.8364840280        1.0711802894
 C         -3.4111746741        3.4747522754        0.0050598436
 C         -2.5019842343        4.5079402480        0.0621690912
 C         -1.1425712809        4.2134469156        0.1170172935
 H          2.8312954214        5.5641808167        0.3169723566
 H          4.4963237195        3.7194171165        0.3018950918
 H          3.5686053872        2.3381899304       -2.1270478123
 H          4.7669209347        1.9304395652       -4.2201346579
 H          6.5675841301        0.2294822154       -4.3107591566
 H          7.1191043443       -1.0643954873       -2.2878065472
 H          3.8049839694       -2.5914005267       -0.5984751488
 H          3.9762139099       -5.0136380618       -1.0645633909
 H          6.1379394153       -6.1641348909       -0.9148461674
 H          8.1819675587       -4.9253061867       -0.2926456802
 H          9.9943312337       -3.1764991029        0.4003471848
 H         11.2996428557       -1.1817851525        1.0477390024
 H         10.2065494523        0.9999434688        1.2978551039
 H          7.7775267841        1.2429749916        0.9062274773
 H          6.2258977884       -2.0361811973        2.5545959008
 H          4.9839297897       -1.5007309472        4.6139601015
 H          3.2914016198        0.3100592445        4.5844318567
 H          2.8463181393        1.5397987506        2.5164189413
 H          1.3673282637        0.8025842013        0.1064731164
 H         -1.3096955334        0.7889485988        0.0435995346
 H         -2.6161014636        1.4918306112       -2.3024225455
 H         -2.9163076989        0.2691078137       -4.3972975105
 H         -4.6262077631       -1.5185862668       -4.5605695720
 H         -6.0380234891       -2.0289752730       -2.6068805225
 H         -3.9684573808       -2.7139726268        0.7027359084
 H         -4.3145504408       -5.1290890291        1.1071425514
 H         -6.5156540255       -6.1514850420        0.7508915783
 H         -8.4267927651       -4.7884997566       -0.0182195063
 H        -10.0747737756       -2.9272050013       -0.8182848240
 H        -11.2089779754       -0.8504522039       -1.5259837689
 H         -9.9780485594        1.2686889114       -1.6416805954
 H         -7.5796615921        1.3648127004       -1.0514389944
 H         -7.2697544386       -1.0759553575        2.1599503034
 H         -6.8129127086        0.1546038315        4.2451758888
 H         -4.9588112619        1.7984552543        4.3120066134
 H         -3.6209776240        2.2210315019        2.3092155301
 H         -4.4713246539        3.6768251960       -0.0418099040
 H         -2.8290069520        5.5378697072        0.0649674564
