118
 xtb: 6.7.1 (edcfbbe)
C            6.86531101228486       -4.41454185773700        1.90349398882298
C            6.61935583746300       -4.12318624285030        0.57158868081244
C            7.00673897149975       -2.90473316317579        0.04201402386585
C            7.64235778177675       -1.97334137333102        0.85489986018721
N            8.01404200741437       -0.71861467125122        0.32149070305903
C            7.14286084737783        0.26025090782453       -0.11024585200512
C            5.70040657181184        0.19014028005355       -0.05786149116482
C            4.98772309658291       -0.54966805406294        0.89210833256396
C            3.61298578329362       -0.58612989206674        0.86472318795576
C            2.87889838613819        0.13621554319258       -0.08769763591882
C            1.42759806511556        0.08351609524031       -0.10784891292643
C            0.66380307907812        1.29134090968829       -0.08939287071995
C            1.27194465967275        2.54666426556155        0.03405488063218
C            0.53557789831397        3.72242052385601       -0.04015666535251
C           -0.82915406978635        3.66534024676339       -0.24684016744875
C           -1.46794601454724        2.43267646137913       -0.30072723023963
C           -0.76031179993642        1.23287607837926       -0.15888140994451
C           -1.42567959822133       -0.03228680283855       -0.11826570661820
C           -2.87656021798858       -0.08562378554530       -0.10693922323334
C           -3.61785895323549        0.65032794260792        0.82958850559021
C           -4.99237797065295        0.60745883189850        0.85325960554931
C           -5.69900344372346       -0.15273954248115       -0.08538416736585
C           -7.14012756671183       -0.23872956267518       -0.13749269024334
N           -7.76623456065998       -1.28878140366457       -0.62771696341707
C           -9.09013249523957       -1.02741401668233       -0.51240838579517
C          -10.18086432619610       -1.86620982751987       -0.88372229231431
C          -10.00739613237974       -3.13199010872086       -1.43290577354371
C          -11.10761727452185       -3.90611835672294       -1.76272721016229
C          -12.38487088686579       -3.42673908302213       -1.55061727799206
C          -12.59658488211182       -2.15603882955129       -1.00533614818267
C          -13.91019929276012       -1.64583055900923       -0.79293054284044
C          -14.10228629469828       -0.40703102043312       -0.28609336310262
C          -13.00224604107042        0.43227678552038        0.05922156427445
C          -13.21042069046110        1.72114933202465        0.56050351184927
C          -12.14055829759266        2.53394636080590        0.87056153697264
C          -10.84214872486938        2.07927441859984        0.71312933446740
C          -10.58548501476705        0.79184573574355        0.24131670000282
C          -11.68103536105711       -0.04901425014426       -0.11742223072928
C          -11.48245530477176       -1.35090658182111       -0.65986020229602
C           -9.28769878489934        0.23429081302777        0.05854185630356
N           -8.02549681950933        0.72389058636138        0.30253104895308
C           -7.67594857725331        1.98242944555257        0.84248466215014
C           -7.90887520134603        2.25251982028237        2.18815505291551
C           -7.54505050808161        3.48010222211333        2.71174764536807
C           -6.94803436628836        4.43389604931268        1.90203786739726
C           -6.71583470741530        4.16159900596985        0.56368074070465
C           -7.07869341852277        2.93791710353189        0.02866416347038
C           -4.96406966815645       -0.90499356858292       -1.01327399363570
C           -3.59104075998463       -0.87847114554093       -1.01997458708263
C           -0.66177587787914       -1.23994711650142       -0.08017001742981
C           -1.27019524268425       -2.49388069269178        0.05461235636634
C           -0.53303847179978       -3.67024024568883       -0.00070395550067
C            0.83320298709040       -3.61531674062955       -0.19767388642451
C            1.47211895107805       -2.38322517631977       -0.26051202881479
C            0.76284608328308       -1.18199139947272       -0.13930527479730
C            3.59955755309232        0.91241077544714       -1.00963759183619
C            4.97291567932676        0.93272848784823       -0.99862436896378
N            7.78309773634286        1.30401979327133       -0.59461433134936
C            9.10339972319692        1.02184822807441       -0.48353660897962
C           10.20568742602846        1.84677629227528       -0.85157246317473
C           10.05004723876055        3.11983129271282       -1.38923175828126
C           11.16105785270393        3.87934104091898       -1.71675281360256
C           12.43142326156053        3.37796519044943       -1.51419692987312
C           12.62516831485919        2.09945810856609       -0.98070817112009
C           13.93135741980275        1.56646794824852       -0.77874061136563
C           14.10581777633562        0.32045360447892       -0.28337428335472
C           12.99402268055392       -0.50404354091178        0.05997449589605
C           13.18370477518814       -1.80039395397235        0.54909337448421
C           12.10236038374624       -2.59884965399353        0.85650202730000
C           10.81070420500646       -2.12201467917350        0.70919516607693
C           10.57267896599881       -0.82637203954379        0.25032525785256
C           11.67990573461534       -0.00013460851411       -0.10635826012177
C           11.49983215915559        1.30924355697889       -0.63711676201614
C            9.28311012557750       -0.24668088307075        0.07781985314880
C            7.88901798160254       -2.26250782911569        2.19411177334977
C            7.50097963673198       -3.48504286732679        2.71210738693410
H            6.57178249151041       -5.36472521244256        2.33211401563085
H            6.15315669154845       -4.86245281371118       -0.04750051021660
H            6.84033878957334       -2.68271203897146       -0.98946319925111
H            5.50243695739154       -1.08772432015494        1.66113350684812
H            3.07588508935381       -1.15231789634913        1.60105493896135
H            2.34114683101856        2.60064717368374        0.17472300463948
H            1.04609556600519        4.67118942670589        0.02666590889711
H           -1.39934821816251        4.57317850522573       -0.37260244680174
H           -2.53103105450199        2.40575230112871       -0.48215427935306
H           -3.08694189957294        1.22770703422415        1.55998234436904
H           -5.51199157524395        1.15280868631170        1.61283349729743
H           -9.00429274858807       -3.47686073865659       -1.61225142175111
H          -10.96721643384841       -4.87552385124818       -2.20666664798953
H          -13.24422640458011       -4.02695568375471       -1.80779948274132
H          -14.75135051731320       -2.27835937466477       -1.02991358783329
H          -15.10088883929638       -0.03190836888609       -0.09072609587388
H          -14.22280065079581        2.06179387590452        0.74226994218631
H          -12.31060283995063        3.52199252644297        1.28583100661879
H          -10.02372581442994        2.73251530800347        0.97748788166796
H           -8.35797747238169        1.48659047404501        2.81693503176912
H           -7.71232817149604        3.67340552548936        3.77171968386417
H           -6.66662753738842        5.38575790280860        2.33479482748333
H           -6.27013750142330        4.91544683755861       -0.05512117773199
H           -6.91674164841809        2.72761816414971       -1.00738006050952
H           -5.51382371691166       -1.48909154634622       -1.74768089989883
H           -3.05378191252025       -1.42988283133759       -1.79009057637883
H           -2.34087630864278       -2.54928124349927        0.18698378794744
H           -1.04458822951334       -4.62050836667814        0.06968283106120
H            1.40376406580965       -4.52635571201806       -0.31222553647997
H            2.53600299489001       -2.35975061683438       -0.43515142051883
H            3.06692425452257        1.45393048722733       -1.78904313079085
H            5.52722767200746        1.50264816927870       -1.73894457234290
H            9.04907695972979        3.48262495624040       -1.56104762319296
H           11.03070808043731        4.85626714426853       -2.15228778708019
H           13.29610448003031        3.96943509571147       -1.77135669488437
H           14.77967756271175        2.19088322751879       -1.01635502100315
H           15.09879048590139       -0.06862699817291       -0.09792003395186
H           14.19230893207202       -2.15498720476006        0.72286505798059
H           12.26037336639349       -3.58992715016082        1.26364522671357
H            9.98446754908853       -2.76242351726957        0.97348917414922
H            8.36488540486750       -1.51269628487950        2.82495738618522
H            7.68005044297149       -3.69203027493429        3.76904653578932
