  45
 
 C          4.5554493898        0.0090853915        2.7575077612
 C          4.8914125657       -0.9093752213        1.7743952538
 C          4.5432379023       -0.6662629097        0.4563656007
 C          3.8683439604        0.4973686685        0.1427566107
 C          3.5300544914        1.4204844885        1.1122269620
 C          3.8786105850        1.1734496930        2.4300254470
 S          3.3716531522        0.7739054559       -1.5612063509
 O          2.9674762914        2.1472632593       -1.7084392555
 O          4.3876599233        0.2577115501       -2.4389183028
 C          1.9078344760       -0.2619449406       -1.7056725690
 C          1.9495210196       -1.4309958008       -2.4385302398
 C          0.8048271384       -2.2090664499       -2.5206604577
 C         -0.3563388078       -1.8105260230       -1.8838497938
 C         -0.3876644465       -0.6303356946       -1.1387032554
 C          0.7678981146        0.1430027628       -1.0450144878
 N         -1.5602201386       -0.2214800178       -0.5038441723
 C         -2.1034484914        1.0526129441       -0.5554208209
 C         -1.6675529750        2.1744873044       -1.2452181839
 C         -2.4270397844        3.3253931501       -1.1474245350
 C         -3.5971126102        3.3651520244       -0.3928500622
 C         -4.0486841656        2.2443212725        0.2745106692
 C         -3.3020681870        1.0762760707        0.1918064779
 C         -3.4806907728       -0.2456398696        0.7260143945
 C         -4.4452008247       -0.8202433693        1.5428092136
 C         -4.3025859527       -2.1453206628        1.9035251640
 C         -3.2061077908       -2.8889570269        1.4746764303
 C         -2.2337163138       -2.3384173643        0.6608109503
 C         -2.3869157027       -1.0159862200        0.2711749795
 H          4.8280494418       -0.1818620455        3.7848065847
 H          5.4249236463       -1.8108176945        2.0352563671
 H          4.8007979188       -1.3522033922       -0.3352659889
 H          3.0176095748        2.3227182390        0.8167952039
 H          3.6253512204        1.8877595066        3.1987284435
 H          2.8642931796       -1.7002278348       -2.9413788809
 H          0.8123095057       -3.1214928426       -3.0973390318
 H         -1.2568452156       -2.3982115892       -1.9787691156
 H          0.7825200142        1.0543507226       -0.4689833394
 H         -0.7725462763        2.1559962628       -1.8479255823
 H         -2.1053619513        4.2127480009       -1.6715802600
 H         -4.1603474955        4.2848068478       -0.3398505720
 H         -4.9643071187        2.2679855275        0.8457507651
 H         -5.2845147642       -0.2372025470        1.8901906410
 H         -5.0428079427       -2.6126812999        2.5354861506
 H         -3.1103911706       -3.9180930917        1.7877757943
 H         -1.3773636129       -2.9195372351        0.3534503931
