  105
 
 C          3.2541862298        8.8847429488        2.2883367479
 C          2.6500839392        7.7304705357        2.7629831240
 C          1.6787213398        7.0916047378        2.0177545107
 C          1.2975664695        7.6025333322        0.7748851168
 N          0.3190414309        6.9551518709        0.0156356484
 C         -0.5886154074        7.6966866038       -0.7445578049
 C         -1.0254869113        7.2225330474       -1.9837998704
 C         -1.9241546080        7.9577295750       -2.7313986302
 C         -2.3991359038        9.1734008462       -2.2633869243
 C         -1.9704645914        9.6479357884       -1.0331346846
 C         -1.0754862741        8.9190309365       -0.2750011104
 C          0.2534065540        5.5586508118        0.0142928217
 C          1.4262205421        4.7913232503        0.0246317185
 C          1.3613872269        3.4201415130        0.0251080809
 C          0.1239550742        2.7566430901        0.0123996213
 C          0.0576300664        1.3155946317        0.0104488466
 N          1.2058158083        0.6232788762        0.0080450087
 C          1.1070503301       -0.7112608644        0.0037590760
 C          2.3241985614       -1.4892111329        0.0006432726
 C          2.2820095532       -2.8919491911       -0.0008592940
 C          3.4385333712       -3.6319826594       -0.0064080326
 C          4.6886008219       -2.9983812957       -0.0063978958
 N          5.8660098358       -3.7509511569       -0.0100788653
 C          5.9346317159       -4.9394095757        0.7228742460
 C          6.6370822404       -6.0394724925        0.2255146862
 C          6.6981940161       -7.2115585321        0.9533381116
 C          6.0602687377       -7.3106507594        2.1803408082
 C          5.3596511551       -6.2223712901        2.6776333866
 C          5.2956826639       -5.0439320852        1.9603824453
 C          6.9694534037       -3.3173232502       -0.7502264190
 C          8.2659446558       -3.5077801167       -0.2665558688
 C          9.3523469554       -3.0775237051       -1.0025938362
 C          9.1684340468       -2.4479187234       -2.2240560873
 C          7.8835137472       -2.2521476638       -2.7067735843
 C          6.7900161732       -2.6831555852       -1.9816806230
 C          4.7373929683       -1.5978171461       -0.0030015773
 C          3.5790004642       -0.8606924064       -0.0013999044
 N         -0.0641058538       -1.3607246529        0.0014788294
 C         -1.1726718715       -0.6065568176        0.0054313001
 C         -2.4548718901       -1.2694010123        0.0044052423
 C         -2.5416442691       -2.6704318339       -0.0155002191
 C         -3.7607832438       -3.3018597070       -0.0143759447
 C         -4.9475073400       -2.5565354529        0.0033937314
 N         -6.1899145628       -3.1969231469        0.0041433913
 C         -6.3772039346       -4.3560829145       -0.7535846887
 C         -5.7530612984       -4.4976896967       -1.9951442895
 C         -5.9373229929       -5.6472703862       -2.7379816969
 C         -6.7452679635       -6.6691556345       -2.2631790511
 C         -7.3675157708       -6.5336709510       -1.0315969590
 C         -7.1862650423       -5.3907598874       -0.2780182051
 C         -7.2413273927       -2.6731415675        0.7614864882
 C         -8.5535351638       -2.7255375277        0.2854658172
 C         -9.5868366883       -2.2016876854        1.0371687536
 C         -9.3333171085       -1.6145564568        2.2673092682
 C         -8.0324015005       -1.5576840991        2.7435772653
 C         -6.9919971065       -2.0825290502        2.0024751828
 C         -4.8678790401       -1.1573271584        0.0209330021
 C         -3.6474168003       -0.5289237793        0.0230311548
 N         -1.1476624288        0.7316126619        0.0103590759
 C         -1.0470186697        3.5314756603        0.0005763303
 C         -0.9852132655        4.9028530812        0.0030571694
 C          1.9129031365        8.7628617377        0.2993218384
 C          2.8805304851        9.3955196481        1.0546827963
 H          4.0114529985        9.3816779428        2.8754672686
 H          2.9318470314        7.3283593935        3.7249791201
 H          1.2007429770        6.1981656351        2.3921486732
 H         -0.6463852744        6.2813843714       -2.3542926733
 H         -2.2495606096        7.5822686811       -3.6904758083
 H         -3.0994392636        9.7455768242       -2.8527018629
 H         -2.3428950344       10.5893532597       -0.6569623172
 H         -0.7537905502        9.2832218513        0.6895595918
 H          2.3843301711        5.2908933410        0.0187514032
 H          2.2616100207        2.8251798956        0.0245057236
 H          1.3175094267       -3.3759184728       -0.0085760619
 H          3.3935044754       -4.7114053456       -0.0232804936
 H          7.1215103527       -5.9682938575       -0.7371543354
 H          7.2400417731       -8.0569295904        0.5555757840
 H          6.1082542883       -8.2293125779        2.7450612193
 H          4.8649513300       -6.2887950771        3.6354697050
 H          4.7587716662       -4.1928079270        2.3530615477
 H          8.4101375170       -3.9837534355        0.6921025869
 H         10.3495734695       -3.2264657427       -0.6155224431
 H         10.0199971340       -2.1114453231       -2.7956942654
 H          7.7312781590       -1.7672951702       -3.6598548759
 H          5.7897771359       -2.5412348788       -2.3640655894
 H          5.6972887262       -1.1019402230        0.0110941619
 H          3.6116054058        0.2178557451        0.0090049997
 H         -1.6252950237       -3.2403039482       -0.0208395974
 H         -3.8141959810       -4.3810600732       -0.0141870010
 H         -5.1334149711       -3.6968065757       -2.3713104152
 H         -5.4528309640       -5.7423722779       -3.6986383791
 H         -6.8878973198       -7.5648805708       -2.8483774546
 H         -7.9918866974       -7.3284181324       -0.6507906698
 H         -7.6598488401       -5.2930281787        0.6877246215
 H         -8.7508631944       -3.1684626370       -0.6795766735
 H        -10.5963970462       -2.2436452165        0.6556236644
 H        -10.1432413440       -1.2037875780        2.8507406175
 H         -7.8266576568       -1.1075241643        3.7036010696
 H         -5.9800502610       -2.0477809026        2.3787887742
 H         -5.7788300022       -0.5762184450        0.0197174291
 H         -3.5817643053        0.5481370785        0.0286416508
 H         -1.9981896472        3.0217908183       -0.0000837849
 H         -1.8932580146        5.4884753755        0.0093426438
 H          1.6338126519        9.1531048724       -0.6682539398
 H          3.3526255725       10.2890703768        0.6736306373
