  67
 
 C          5.0184760101       -2.5934031331        0.5961473464
 C          4.4498396313       -1.6074903059       -0.4449721792
 O          5.5327777556       -0.6898118722       -0.6681350073
 C          5.4208893332        0.2940382300       -1.6414171798
 O          4.4346180507        1.2590314961       -1.3523048677
 C          3.1749556818        1.0183820483       -1.8343483002
 O          2.9616013435        0.1849407186       -2.7084349771
 C          2.1617081306        1.8898650125       -1.2549074946
 C          0.8151710610        1.6355888784       -1.5412325806
 C         -0.1752324081        2.4199172635       -0.9900772530
 C          0.1623388071        3.4810470518       -0.1604112933
 C          1.4959629766        3.7526083448        0.1117546462
 C          2.4941253596        2.9656045733       -0.4246588032
 C          4.0564288135       -2.4009762399       -1.7149429844
 C          2.8349935147       -3.2131881522       -1.5290838022
 C          1.7576310205       -2.7181544017       -0.8127656532
 C          1.9246197767       -1.5507048003       -0.0855261844
 C          3.2330761279       -0.9636312750        0.1292692368
 C          3.0793693457        0.0409727997        1.0833918509
 C          3.9893214326        0.9143780775        1.7085934421
 C          3.5019716976        1.8343579189        2.6143040860
 C          2.1416948430        1.9244177306        2.8837295423
 C          1.2150731761        1.0682834634        2.2758169161
 C          1.6880662802        0.1161589558        1.4073478491
 N          1.0101588993       -0.8659341976        0.6837862572
 C         -0.3659757565       -1.0640913353        0.6711645246
 C         -1.0314438218       -1.2956224706       -0.5407355954
 C         -2.3990491792       -1.4581256291       -0.5601794364
 C         -3.1137979780       -1.4052809754        0.6276321661
 S         -4.8950549346       -1.5070025198        0.5613101465
 O         -5.2856363544       -2.5431723812       -0.3733710779
 O         -5.4094694277       -1.6184446568        1.9119074511
 C         -5.3710843939        0.0875179368       -0.1150530323
 C         -5.9291260009        0.1653152981       -1.3758854874
 C         -6.2473914925        1.4092151661       -1.8979848847
 C         -5.9969940593        2.5534580959       -1.1566464990
 C         -5.4340462843        2.4623012456        0.1080569612
 C         -5.1158529951        1.2212814756        0.6339247369
 C         -2.4693175524       -1.2005143409        1.8369038087
 C         -1.1004468961       -1.0364874125        1.8642525665
 H          5.2649089539       -2.0551504083        1.5066574772
 H          5.9227845090       -3.0449272442        0.1984074620
 H          4.2846696508       -3.3638412738        0.8112388713
 H          6.3792361210        0.8218871821       -1.6236608743
 H          5.2368057304       -0.1242820023       -2.6435212326
 H          0.5783181478        0.8135487536       -2.1997321944
 H         -1.2123345071        2.2093651328       -1.2065491731
 H         -0.6131226328        4.0979012292        0.2680119549
 H          1.7572731058        4.5850634815        0.7479482007
 H          3.5325287705        3.1699969773       -0.2192945055
 H          4.8998861214       -3.0019749016       -2.0549550367
 H          3.8229274189       -1.6580874118       -2.4952176830
 H          2.7596221852       -4.1563463129       -2.0428941775
 H          0.8175594660       -3.2474660885       -0.7971046241
 H          5.0388179799        0.8524268815        1.4696080160
 H          4.1854973747        2.5059788533        3.1117206525
 H          1.7831029681        2.6708459020        3.5752399334
 H          0.1637383581        1.1761403889        2.4854705395
 H         -0.4677136930       -1.3156796323       -1.4597263766
 H         -2.9300167344       -1.6291252462       -1.4831729207
 H         -6.1100568964       -0.7485973073       -1.9205599067
 H         -6.6880289573        1.4828790647       -2.8805736833
 H         -6.2434924214        3.5218516153       -1.5654538148
 H         -5.2434309918        3.3558543492        0.6826264108
 H         -4.6849152999        1.1161632481        1.6172436560
 H         -3.0575683190       -1.1935983763        2.7413453799
 H         -0.5884463808       -0.9188919357        2.8056742046
