  68
 
 O          4.4190979157        2.4810379131       -0.5382556600
 C          4.9749764139        1.3836423678       -0.2688055158
 C          6.3971645064        1.3257746163        0.0108264853
 C          7.0780472401        2.5587489259        0.1391914940
 C          8.4039471410        2.5917438682        0.4894847830
 C          9.1154523305        1.4162903961        0.7229330058
 C          8.4760779264        0.1974674236        0.5708312470
 C          7.1445217178        0.1688790978        0.2117096356
 S          6.4366512636       -1.4296918703       -0.1548274395
 O          6.6795355593       -1.7176641807       -1.5439229706
 O          6.8823544717       -2.4044061736        0.8030364026
 C          4.6951549111       -1.1120646964        0.0584484010
 C          3.8754289026       -2.1973356064        0.2940972208
 C          2.5036033486       -2.0322590902        0.3048219080
 C          1.9519634474       -0.7656437492        0.0592308774
 C          0.4949496466       -0.5670155018        0.0570395714
 C         -0.1084645166        0.2475805616       -0.8998753829
 C         -1.4774821916        0.4237670137       -0.9043542743
 C         -2.2885830692       -0.1914363630        0.0461803662
 Si        -4.1649153519        0.0705197037        0.0207728095
 C         -4.9519670350       -1.0732718223       -1.2724965877
 C         -6.3091544506       -1.3737527692       -1.2053865299
 C         -6.9055996684       -2.1840818488       -2.1543912290
 C         -6.1494049374       -2.7105097165       -3.1884207344
 C         -4.7971251176       -2.4238240665       -3.2659147321
 C         -4.2053487374       -1.6117226052       -2.3146484185
 C         -4.8987188229       -0.3532231855        1.7165770874
 C         -5.2031830444        0.6410814546        2.6404875143
 C         -5.7171104676        0.3224975618        3.8848784179
 C         -5.9361667290       -1.0013836906        4.2261648768
 C         -5.6413991521       -2.0033520511        3.3164651491
 C         -5.1287237356       -1.6791622841        2.0736244027
 C         -4.5132459632        1.8811447698       -0.4130531750
 C         -5.5791008180        2.2398455386       -1.2322096277
 C         -5.8375349678        3.5672106845       -1.5238655417
 C         -5.0304426649        4.5621412967       -0.9983188341
 C         -3.9634797185        4.2222995429       -0.1830678782
 C         -3.7093049803        2.8938250161        0.1044514594
 C         -1.6782328877       -1.0000985878        1.0002794480
 C         -0.3100789416       -1.1875512942        1.0100737270
 C          2.7857286999        0.3124234770       -0.1608077738
 C          4.1889858320        0.1712829352       -0.1350801714
 H          6.5074798589        3.4588117372       -0.0358122463
 H          8.8997037476        3.5461753506        0.5901676393
 H         10.1558804829        1.4491920707        1.0047586338
 H          8.9894592830       -0.7397629786        0.7168333048
 H          4.3333858523       -3.1619173011        0.4465932658
 H          1.8596923047       -2.8828458358        0.4626544766
 H          0.5001709420        0.7254987877       -1.6530765832
 H         -1.9293483862        1.0577763523       -1.6541383586
 H         -6.9019556485       -0.9708776725       -0.3960327237
 H         -7.9609045904       -2.4065304859       -2.0874067780
 H         -6.6128009670       -3.3447324473       -3.9300325250
 H         -4.2020641274       -2.8343823127       -4.0688784662
 H         -3.1486639187       -1.3950984479       -2.3784258224
 H         -5.0385954625        1.6763346590        2.3778596924
 H         -5.9483691096        1.1080127199        4.5898520967
 H         -6.3383491655       -1.2520103580        5.1969484790
 H         -5.8130334277       -3.0380471635        3.5765749503
 H         -4.9073044706       -2.4645233176        1.3641836613
 H         -6.2093675111        1.4674355382       -1.6495254778
 H         -6.6690541713        3.8270444249       -2.1630752082
 H         -5.2302709616        5.5991869376       -1.2253133866
 H         -3.3287351719        4.9943448388        0.2274914857
 H         -2.8718119403        2.6334994152        0.7367554141
 H         -2.2862045410       -1.4822865331        1.7522058242
 H          0.1439037711       -1.8024060888        1.7734162896
 H          2.3932945972        1.3062678352       -0.3191043310
