  85
 
 C          2.5193696888        5.0607132220       -0.0840305364
 C          2.7129732527        4.3337737611        1.2449463010
 N          2.2578828135        2.9713842484        1.1842688331
 C          1.0141268121        2.4998517474        1.5360987281
 C         -0.0886728194        3.1994711191        2.0051434743
 C         -1.2406063334        2.4922895010        2.2876608621
 C         -1.3080498679        1.1122062024        2.1074846528
 C         -0.2214294618        0.3970790746        1.6476936807
 C          0.9545540007        1.0829799422        1.3576391834
 C          2.2388943499        0.7301233634        0.8682498113
 C          2.9921194984        1.9010568981        0.7518316663
 C          4.2492340789        1.5611122592        0.1896711784
 C          5.4009617680        2.2585650841       -0.1664656707
 C          6.4657666068        1.5574599964       -0.6920483255
 C          6.4086091733        0.1737303285       -0.8559637656
 C          5.2788070219       -0.5452759574       -0.5163989312
 C          4.1893582094        0.1479050206       -0.0105166162
 N          2.9668367415       -0.3392472828        0.4090869663
 C          2.4991408848       -1.6574130720        0.3539699049
 C          1.8884130729       -2.2070322220        1.4856462341
 C          1.2841638030       -3.4418148926        1.4086338175
 C          1.2980432676       -4.1432478147        0.2095025706
 S          0.0389434062       -5.3900066847       -0.0443367495
 O          0.3010155897       -6.1102721407       -1.2628004974
 O         -0.1942953858       -6.1403612170        1.1617233396
 C         -1.2391269201       -4.1713192048       -0.2728965083
 C         -1.2125256709       -3.4214186651       -1.4485979803
 C         -1.8162031665       -2.1904589547       -1.4885353096
 C         -2.4638362614       -1.6847660670       -0.3470182995
 N         -2.9321701768       -0.3769209444       -0.3642301437
 C         -4.1754528389        0.0912578334        0.0975550668
 C         -5.2219161501       -0.6236898278        0.6183675380
 C         -6.3813954241        0.0745796844        0.9921515265
 C         -6.4674941372        1.4502791004        0.8407177826
 C         -5.4299318738        2.1840061550        0.2943041080
 C         -4.2658475752        1.5087835122       -0.1067706996
 C         -3.0582689282        1.8741006671       -0.7128385130
 C         -2.2462988620        0.6901547981       -0.8478232019
 C         -0.9953166384        1.0777827371       -1.3648242155
 C          0.2078834521        0.4248044587       -1.6527394433
 C          1.2699516408        1.1797128397       -2.1400931997
 C          1.1551008237        2.5391155826       -2.3454148594
 C         -0.0394893462        3.2199723537       -2.0525377452
 C         -1.0949934758        2.4900345033       -1.5632625777
 N         -2.3627423055        2.9365702425       -1.1883758322
 C         -2.8374780411        4.2893904125       -1.2761178618
 C         -2.5108746101        5.0928269578       -0.0185995771
 C         -2.5562926475       -2.4793213965        0.8061409154
 C         -1.9294078514       -3.7024499413        0.8434632361
 C          1.9654875708       -3.6340707713       -0.8971309071
 C          2.5741367153       -2.3981371542       -0.8266191746
 H          1.4679346089        5.0628084732       -0.3592323218
 H          3.0781561769        4.5577173624       -0.8688794709
 H          2.8679143110        6.0870678180       -0.0042931933
 H          3.7734507384        4.3257732555        1.5132435455
 H          2.1643222171        4.8482959418        2.0384079636
 H         -0.0537468816        4.2690775673        2.1507354916
 H         -2.1094909585        3.0162323197        2.6576066797
 H         -2.2291451926        0.5990992156        2.3404271319
 H         -0.2826633084       -0.6713584977        1.5038624093
 H          5.4606037689        3.3285463438       -0.0323680204
 H          7.3647239810        2.0844088041       -0.9750086415
 H          7.2665507964       -0.3459751943       -1.2550019315
 H          5.2481742129       -1.6178717548       -0.6322962706
 H          1.8782645374       -1.6408959825        2.4048724014
 H          0.7786532944       -3.8752631161        2.2570746398
 H         -0.6982070374       -3.8247449538       -2.3064529808
 H         -1.8036181666       -1.5935362445       -2.3878458155
 H         -5.1739754641       -1.6953652567        0.7307234266
 H         -7.2137902829       -0.4744304252        1.4029115599
 H         -7.3685197648        1.9592825943        1.1500638227
 H         -5.5115433359        3.2539195957        0.1785222827
 H          0.3090545737       -0.6373725454       -1.4953130716
 H          2.2051123111        0.6894027270       -2.3670652909
 H          1.9920939055        3.0962136881       -2.7370983323
 H         -0.1089926069        4.2844195112       -2.2172127681
 H         -2.3805294790        4.7607428916       -2.1510950578
 H         -3.9198043774        4.2583693955       -1.4275272279
 H         -1.4363517492        5.1152299226        0.1427333910
 H         -2.9793450186        4.6351702433        0.8485993666
 H         -2.8756553445        6.1113140295       -0.1213695215
 H         -3.0583091344       -2.0950527689        1.6807910043
 H         -1.9360365974       -4.3108912135        1.7339951968
 H          1.9695872076       -4.2123751379       -1.8075416086
 H          3.0615263100       -1.9766488135       -1.6928248392
