  113
 
 C         -8.7158014685       -2.2324286183       -4.0152498443
 C         -8.2305844971       -0.9937669414       -3.6025832210
 C         -7.2313466333       -0.8895312177       -2.6536528026
 C         -6.7284765853       -2.0639978895       -2.1116780458
 C         -7.1970748950       -3.3265073643       -2.5433089303
 C         -8.2008973111       -3.4054786304       -3.4984872193
 C         -6.4344515547       -4.3118542074       -1.8272916095
 C         -6.4429013185       -5.6996595983       -1.8104041852
 C         -5.5664868717       -6.3563378000       -0.9684791445
 C         -4.7012594897       -5.6464196470       -0.1392376080
 C         -4.6748735044       -4.2647550558       -0.1380656638
 C         -5.5357132515       -3.5999208221       -0.9998720432
 N         -5.7278693351       -2.2444969467       -1.1776459512
 C         -5.0092854820       -1.2268209228       -0.5352226783
 C         -3.6242393421       -1.2620091493       -0.5249187146
 C         -2.8900310875       -0.2407091653        0.0938073158
 C         -1.4493200994       -0.2285814151        0.0558673357
 C         -0.6859490423       -1.4297719388        0.0082151290
 C          0.6763414331       -1.4336072866       -0.0083180928
 C          1.4465285619       -0.2365984032       -0.0514153232
 C          2.8871472925       -0.2567768675       -0.0894041305
 C          3.5937397440        0.7761435951       -0.7193601625
 C          4.9779681391        0.8057347831       -0.7015673291
 N          5.6593454877        1.8620290484       -1.3158542282
 C          5.3495012139        3.2038236355       -1.1807589103
 C          4.3552960377        3.8144036976       -0.4275821714
 C          4.2847777123        5.1946596065       -0.4568287261
 C          5.1808409244        5.9564816148       -1.2026647914
 C          6.1846333367        5.3545283565       -1.9374768308
 C          6.2742017492        3.9699626233       -1.9272375162
 C          7.1713224915        3.0367052814       -2.5527002678
 C          8.2509767461        3.1823902081       -3.4112499255
 C          8.8929485031        2.0461488099       -3.8665000662
 C          8.4569070335        0.7786817508       -3.4896809398
 C          7.3835630765        0.6088800212       -2.6353639612
 C          6.7536319339        1.7467890606       -2.1497092365
 C          5.6938254289       -0.2105772423       -0.0691516434
 C          5.0007598744       -1.2573800538        0.5357609102
 N          5.7135314122       -2.2815795470        1.1742870759
 C          6.7150122114       -2.1103257874        2.1091215088
 C          7.2244473255       -0.9408056093        2.6556522035
 C          8.2229391591       -1.0543271880        3.6043015669
 C          8.7010792841       -2.2972834375        4.0122839890
 C          8.1796225051       -3.4654161557        3.4909637635
 C          7.1764057278       -3.3771086196        2.5359733194
 C          6.4083196131       -4.3553779169        1.8160936038
 C          6.4089249486       -5.7431296406        1.7938900688
 C          5.5289203403       -6.3916123587        0.9493564224
 C          4.6678246446       -5.6736404333        0.1227550963
 C          4.6492495228       -4.2918543011        0.1268753368
 C          5.5137323742       -3.6352018950        0.9913083135
 C          3.6155309272       -1.2846389091        0.5253324558
 C          0.7222881178        0.9774537782       -0.0397904235
 N          1.2344635336        2.2042361637       -0.0583389543
 S          0.0086076509        3.2967202838        0.0088841756
 N         -1.2234226753        2.2109583819        0.0720015790
 C         -0.7182054671        0.9813710256        0.0488212577
 C         -3.5907336261        0.7937451172        0.7278123001
 C         -4.9747636916        0.8312966340        0.7101219412
 N         -5.6501507706        1.8890200513        1.3285579111
 C         -6.7452482520        1.7767022190        2.1617664892
 C         -7.3817681914        0.6404875698        2.6427565503
 C         -8.4543236281        0.8130069999        3.4975208785
 C         -8.8832030380        2.0814361798        3.8793061765
 C         -8.2346318909        3.2157864570        3.4287532093
 C         -7.1556217638        3.0673631347        2.5698397488
 C         -6.2530449499        3.9979612506        1.9483061894
 C         -6.1555401797        5.3819526868        1.9641536767
 C         -5.1481768469        5.9811001092        1.2319646270
 C         -4.2563559799        5.2171699666        0.4831945940
 C         -4.3347841427        3.8374689371        0.4483549189
 C         -5.3326001168        3.2295642408        1.1989023045
 C         -5.6963868574       -0.1784327299        0.0737315808
 H         -9.4985150065       -2.2716115807       -4.7579722914
 H         -8.6405126731       -0.0941976279       -4.0372069551
 H         -6.8472569749        0.0749917499       -2.3579754195
 H         -8.5649931728       -4.3657089015       -3.8311267323
 H         -7.1245678058       -6.2500880895       -2.4409486449
 H         -5.5545896736       -7.4357033333       -0.9427687241
 H         -4.0383875802       -6.1875799233        0.5196603535
 H         -4.0139830256       -3.7225147000        0.5214077361
 H         -3.1161479936       -2.0517079774       -1.0559795267
 H         -1.2145160349       -2.3707215443        0.0299340510
 H          1.1995490967       -2.3774579334       -0.0336115812
 H          3.0470049180        1.5425318829       -1.2416099289
 H          3.6522961035        3.2416436621        0.1561575340
 H          3.5139947609        5.6915600290        0.1128340514
 H          5.0899510391        7.0324946144       -1.2010703365
 H          6.8868256224        5.9440602754       -2.5073933016
 H          8.5758500629        4.1643737459       -3.7199726962
 H          9.7367223130        2.1375538831       -4.5339404231
 H          8.9644398535       -0.0920794671       -3.8774940444
 H          7.0401237669       -0.3801670085       -2.3728539338
 H          6.7717418372       -0.1872632092       -0.0423170080
 H          6.8458670051        0.0269992425        2.3636168044
 H          8.6378867738       -0.1587621907        4.0424191287
 H          9.4834487567       -2.3437393062        4.7549501722
 H          8.5382339069       -4.4289566681        3.8199707690
 H          7.0873833970       -6.2998196671        2.4223950586
 H          5.5109276623       -7.4707875453        0.9195066599
 H          4.0019854506       -6.2085173979       -0.5382791120
 H          3.9915114191       -3.7433595876       -0.5305745793
 H          3.1029545307       -2.0734967590        1.0533271402
 H         -3.0396456871        1.5549311186        1.2530838254
 H         -7.0439238543       -0.3494565652        2.3763956200
 H         -8.9669128109       -0.0563820268        3.8817417070
 H         -9.7266034175        2.1749964084        4.5469191458
 H         -8.5539428439        4.1983724901        3.7413352023
 H         -6.8544578980        5.9731833948        2.5363297093
 H         -5.0511115951        7.0565708987        1.2347432989
 H         -3.4826311419        5.7119371246       -0.0843299585
 H         -3.6349736297        3.2630679748       -0.1376018463
 H         -6.7741489059       -0.1488611658        0.0469689143
