90

C      0.000045   -2.962016   -0.001298
C     -1.145471   -2.265239    0.383341
C     -1.166407   -0.862677    0.393150
C     -2.373376   -0.125244    0.804345
C     -2.306747    0.862786    1.815702
C     -3.438331    1.578490    2.229380
C     -4.651535    1.303012    1.625051
C     -4.736853    0.321480    0.615352
C     -3.614998   -0.389989    0.202169
C     -6.178935    0.209468    0.115630
C     -6.322105    0.456757   -1.387729
C     -5.961574    1.577295   -2.125042
C     -6.193506    1.564135   -3.501111
C     -6.775959    0.445854   -4.119771
C     -7.137536   -0.680505   -3.373566
C     -6.908509   -0.670338   -2.007128
C     -7.176462   -1.679528   -1.002266
C     -7.737197   -2.940756   -1.123108
C     -7.881926   -3.720584    0.028953
C     -7.469206   -3.239151    1.282128
C     -6.903980   -1.969329    1.406954
C     -6.762047   -1.198232    0.260377
C     -6.891088    1.255506    0.976128
C     -8.232365    1.615920    0.978588
C     -8.646634    2.609596    1.866620
C     -7.728687    3.225913    2.732805
C     -6.378756    2.859945    2.727119
C     -5.964636    1.873756    1.846482
C      0.000042   -0.180792   -0.000116
C      1.166493   -0.862340   -0.393980
C      2.373463   -0.124548   -0.804541
C      2.306782    0.864571   -1.814835
C      3.438341    1.580715   -2.227817
C      4.651584    1.304578   -1.623862
C      4.736963    0.321944   -0.615244
C      3.615134   -0.389972   -0.202762
C      6.179035    0.209541   -0.115575
C      6.762277   -1.197969   -0.261567
C      6.904537   -1.967933   -1.408862
C      7.469850   -3.237825   -1.285144
C      7.882340   -3.720435   -0.032345
C      7.737304   -2.941741    1.120441
C      7.176479   -1.680448    1.000701
C      6.908283   -0.672235    2.006481
C      7.136977   -0.683718    3.372965
C      6.775212    0.441919    4.120167
C      6.192905    1.560790    3.502441
C      5.961285    1.575268    2.126337
C      6.321993    0.455439    1.388036
C      6.891149    1.256464   -0.975019
C      8.232420    1.616904   -0.977153
C      8.646644    2.611521   -1.864156
C      7.728644    3.228760   -2.729629
C      6.378720    2.862766   -2.724273
C      5.964656    1.875609   -1.844697
C      1.145556   -2.264910   -0.385364
H      0.000046   -4.048813   -0.001754
H     -2.025859   -2.827517    0.688907
H     -1.354385    1.071287    2.301462
H     -3.352764    2.326754    3.010041
H     -3.704524   -1.134106   -0.585518
H     -5.510816    2.441357   -1.646354
H     -5.919933    2.428705   -4.101498
H     -6.947041    0.457052   -5.193771
H     -7.586054   -1.537865   -3.863792
H     -8.059907   -3.324447   -2.085010
H     -8.320021   -4.713301   -0.045181
H     -7.591870   -3.862972    2.164539
H     -6.584777   -1.596558    2.375550
H     -8.941446    1.138977    0.308681
H     -9.691600    2.910296    1.888566
H     -8.073752    3.997998    3.416724
H     -5.680159    3.343722    3.401317
H      0.000046    0.908597    0.000365
H      1.354386    1.073633   -2.300295
H      3.352716    2.329864   -3.007629
H      3.704711   -1.134920    0.584131
H      6.585543   -1.594224   -2.377165
H      7.592786   -3.860784   -2.168132
H      8.320508   -4.713180    0.040926
H      8.059865   -3.326335    2.082028
H      7.585361   -1.541555    3.862473
H      6.946023    0.452086    5.194221
H      5.919181    2.424784    4.103586
H      5.510612    2.439778    1.648385
H      8.941534    1.139246   -0.307791
H      9.691610    2.912250   -1.885844
H      8.073664    4.001588   -3.412731
H      5.680084    3.347282   -3.397905
H      2.025941   -2.826929   -0.691419
