104

C     13.135637   -3.753868   -3.610103
O     11.825748   -3.929596   -3.086790
C     11.298745   -2.887355   -2.376088
C     11.894490   -1.644113   -2.178695
C     11.245652   -0.666275   -1.412908
C      9.988789   -0.907435   -0.832670
N      9.334506    0.098578   -0.031016
C     10.106909    0.907658    0.881128
C     11.128659    0.341684    1.664841
C     11.882952    1.123450    2.549620
C     11.628337    2.488675    2.669450
O     12.291986    3.362719    3.484589
C     13.241424    2.802534    4.384996
C     10.612162    3.060161    1.901681
C      9.858084    2.281695    1.017385
C      7.906009    0.279875   -0.117897
C      7.243682    0.242029   -1.356211
C      5.856390    0.410595   -1.437370
C      5.091310    0.614899   -0.281851
C      3.638488    0.774794   -0.360020
C      3.069132    2.015145   -0.684589
C      1.681351    2.170952   -0.742601
C      0.842923    1.082521   -0.477746
C      1.394999   -0.156701   -0.161793
C      2.787255   -0.310298   -0.101322
C      0.521677   -1.314407    0.113130
O      1.005362   -2.408067    0.379658
C     -0.943118   -1.136920    0.066081
C     -1.780767   -2.223409    0.334629
C     -3.168805   -2.059888    0.302027
C     -3.747510   -0.814477    0.003064
C     -5.209355   -0.644589   -0.013546
C     -5.864102   -0.091387   -1.123781
C     -7.255705    0.065420   -1.139789
C     -8.041320   -0.323617   -0.043594
N     -9.476509   -0.170130   -0.059940
C    -10.317422   -1.193889    0.513572
C    -10.033906   -2.555652    0.321997
C    -10.849555   -3.542740    0.883775
C    -11.965844   -3.196334    1.646296
O    -12.674100   -4.258140    2.138060
C    -13.859206   -3.957188    2.864179
C    -12.261334   -1.848838    1.845160
C    -11.444882   -0.858496    1.282812
C    -10.074482    1.003285   -0.650199
C     -9.513916    2.277863   -0.460644
C    -10.090244    3.418413   -1.035676
C    -11.242604    3.306086   -1.811342
O    -11.901837    4.332289   -2.430957
C    -11.345421    5.633516   -2.283102
C    -11.812483    2.046618   -2.003265
C    -11.237203    0.907703   -1.430679
C     -7.384641   -0.871763    1.069664
C     -5.993806   -1.030375    1.083643
C     -2.889600    0.264038   -0.270891
C     -1.496124    0.103766   -0.240146
C     -0.622513    1.258754   -0.530260
O     -1.106435    2.349594   -0.810774
C      5.747189    0.658859    0.955708
C      7.134192    0.496758    1.036179
C      9.397105   -2.161371   -1.050277
C     10.046430   -3.137506   -1.813106
H     13.149355   -2.967502   -4.371692
H     13.859434   -3.543484   -2.815250
H     13.432061   -4.690457   -4.090085
H     12.861350   -1.398152   -2.603484
H     11.727865    0.300031   -1.284974
H     11.331915   -0.725982    1.604046
H     12.664241    0.634209    3.120319
H     12.770035    2.074814    5.055599
H     13.636743    3.615811    5.000732
H     14.082917    2.356594    3.843649
H     10.407709    4.124735    1.986607
H      9.084427    2.761834    0.423083
H      7.808251    0.093257   -2.273855
H      5.376099    0.375220   -2.413409
H      3.709738    2.872816   -0.887689
H      1.260076    3.143765   -0.991272
H      3.214788   -1.281280    0.149568
H     -1.360426   -3.200482    0.568860
H     -3.802386   -2.922231    0.505542
H     -5.296745    0.211749   -2.001671
H     -7.724668    0.475798   -2.031437
H     -9.183016   -2.860565   -0.282606
H    -10.613831   -4.591330    0.720420
H    -14.320373   -4.904700    3.158253
H    -13.631165   -3.400229    3.779031
H    -14.577195   -3.414855    2.239732
H    -13.113204   -1.529514    2.435760
H    -11.686897    0.185951    1.468489
H     -8.626167    2.396530    0.157069
H     -9.613939    4.375545   -0.849539
H    -11.359471    5.950772   -1.234653
H    -10.332439    5.680704   -2.696726
H    -11.967761    6.328957   -2.852747
H    -12.711182    1.948357   -2.607020
H    -11.694507   -0.061025   -1.618995
H     -7.952058   -1.166555    1.949608
H     -5.526902   -1.447937    1.973965
H     -3.309177    1.245185   -0.494115
H      5.180138    0.815684    1.871285
H      7.606853    0.517845    2.015955
H      8.433123   -2.400048   -0.608079
H      9.573571   -4.105936   -1.959953
