  111
 
 C          8.7254478127       -0.6859446252       -1.2021900579
 C          7.6993349206       -1.7642886747       -1.5642343742
 C          8.1942861381       -3.1028503488       -0.9959710345
 C          7.6173142982       -1.8478046942       -3.0958998280
 C          6.3158057792       -1.4673807142       -1.0020051529
 C          5.2713357164       -2.3643041428       -1.2633639558
 C          3.9880583597       -2.1834219668       -0.7872159437
 C          3.7341731717       -1.0676372851       -0.0050172564
 C          4.7601689515       -0.1351314495        0.2500709294
 C          6.0416752192       -0.3398423768       -0.2449682212
 C          4.1703758621        0.9200086419        1.0290718760
 C          4.6873830051        2.0820770834        1.5871132167
 C          3.8650482809        2.9160094204        2.3273610771
 C          4.3596954530        4.2122261517        2.9547954944
 C          4.1832251795        4.1372169435        4.4787526456
 C          3.5423641214        5.3855846415        2.3934767291
 C          5.8388596049        4.4812964430        2.6607912896
 C          2.5271049316        2.5413207258        2.5091819361
 C          1.9874611305        1.3919816675        1.9665299971
 C          2.8121572142        0.5828502480        1.2005247524
 N          2.5540760254       -0.6238073767        0.5698694888
 C          1.3265134823       -1.2834704299        0.5197123890
 C          1.2511221486       -2.6466307325        0.7878671589
 C          0.0305859140       -3.3103469542        0.7024334976
 C         -0.0009595099       -4.7608382770        1.0042343704
 O          0.8198511519       -5.2854576132        1.7382350902
 C         -1.0744790853       -5.5618336747        0.3655507703
 C         -1.6538819784       -6.6261927056        1.0563050761
 C         -2.6303248322       -7.3811730805        0.4317159334
 C         -2.9866869237       -7.0464962249       -0.8678491610
 N         -2.4172833008       -6.0628295406       -1.5462240849
 C         -1.4859809805       -5.3436569603       -0.9514630133
 C         -1.1282424671       -2.6062823761        0.3881274718
 C         -1.0639268484       -1.2336891150        0.1602331971
 N         -2.2258032931       -0.5184287047       -0.1312647055
 C         -3.4283054208       -0.6110139284        0.5517396764
 C         -3.7706248946       -1.3473606435        1.6729793165
 C         -5.0550069757       -1.2241751338        2.1739027435
 C         -6.0107356771       -0.3804922247        1.6019945636
 C         -7.4247317247       -0.2515206687        2.1535090115
 C         -7.6638559229        1.2033875223        2.5848372824
 C         -8.4279574576       -0.6394542272        1.0567372585
 C         -7.6765397338       -1.1531280562        3.3660414005
 C         -5.6446814619        0.3759674008        0.4956097277
 C         -4.3660429882        0.2704783514       -0.0274835149
 C         -3.6950887100        0.9223530487       -1.1206696031
 C         -4.1014138021        1.8619161733       -2.0545625566
 C         -3.2169345870        2.3021068076       -3.0313088744
 C         -3.6820203203        3.3491360823       -4.0349319811
 C         -2.5916697438        3.7411654010       -5.0368659729
 C         -4.8771272875        2.7936644197       -4.8239396771
 C         -4.1047199185        4.6152411777       -3.2742843120
 C         -1.9313139633        1.7555050968       -3.0567689217
 C         -1.4999134836        0.8153429773       -2.1372638783
 C         -2.3800047472        0.4113238672       -1.1480226428
 C          0.1645753518       -0.5797234096        0.2123187929
 H          9.6929153496       -0.9505088531       -1.6246979237
 H          8.8419956309       -0.6026288148       -0.1239487471
 H          8.4356611034        0.2811898658       -1.6068660185
 H          7.5344832332       -3.9204894875       -1.2733798201
 H          8.2397506028       -3.0563967401        0.0905664581
 H          9.1899984719       -3.3254226945       -1.3742473665
 H          8.6054253399       -2.0286844524       -3.5141452739
 H          6.9612325560       -2.6526361686       -3.4159356334
 H          7.2349979422       -0.9137117218       -3.5031656021
 H          5.4633855451       -3.2397519863       -1.8649471341
 H          3.2110759558       -2.8927995199       -1.0308967330
 H          6.8004759395        0.3934574219       -0.0293602601
 H          5.7292979551        2.3075532791        1.4337123537
 H          3.1383014817        4.0212480222        4.7531247030
 H          4.7368003007        3.2904394535        4.8803017298
 H          4.5579041895        5.0467645997        4.9440257125
 H          3.6465806237        5.4322571614        1.3110446447
 H          2.4866903516        5.2833044791        2.6294305616
 H          3.8961384742        6.3241693954        2.8153296375
 H          6.1347818923        5.4208262785        3.1236286633
 H          6.0164245057        4.5638379674        1.5908181933
 H          6.4688325263        3.6939403417        3.0685921105
 H          1.8775631975        3.1677064610        3.1014988808
 H          0.9557956311        1.1341863797        2.1537841979
 H          2.1313461671       -3.2025935276        1.0714499509
 H         -1.3373393459       -6.8329993455        2.0687275591
 H         -3.1061752787       -8.2052838483        0.9389272935
 H         -3.7566491440       -7.5909081977       -1.3983841400
 H         -1.0326454185       -4.5689432756       -1.5566506483
 H         -2.0789001857       -3.1115343164        0.3265411782
 H         -3.0595339472       -1.9960328648        2.1629310020
 H         -5.3045553398       -1.8083921882        3.0442161644
 H         -8.6638030009        1.3117558590        3.0001006228
 H         -7.5682991216        1.8868735162        1.7456230704
 H         -6.9408489016        1.4941214628        3.3447279282
 H         -8.3401578735        0.0102473084        0.1903300184
 H         -8.2538473488       -1.6639198320        0.7328562539
 H         -9.4451943704       -0.5652820854        1.4360034772
 H         -8.7018206749       -1.0219165481        3.7068653348
 H         -7.0145897155       -0.8964736816        4.1901736691
 H         -7.5399165936       -2.2015563540        3.1102628543
 H         -6.3425594366        1.0565812134        0.0331909820
 H         -5.1116609698        2.2381356069       -2.0099481557
 H         -2.2799626887        2.8864643609       -5.6331154298
 H         -1.7249119626        4.1590075872       -4.5294767228
 H         -2.9803715555        4.4983459644       -5.7152146041
 H         -5.2151615256        3.5241169741       -5.5562533052
 H         -4.5911868757        1.8844596156       -5.3495346380
 H         -5.7106860175        2.5588757661       -4.1677449684
 H         -3.2680614393        5.0028648136       -2.6959401043
 H         -4.4263433842        5.3838335774       -3.9742157422
 H         -4.9250110147        4.4127704249       -2.5911929983
 H         -1.2315291769        2.0615027342       -3.8166367597
 H         -0.5034452185        0.4062326545       -2.2105717238
 H          0.2155773754        0.4802420011        0.0198298106
