117
 xtb: 6.7.1 (edcfbbe)
C           -5.62994044532082       -9.43950050749282        3.26582894715369
C           -4.85934892080449       -8.60401218711317        2.28873920114381
C           -4.44816746474912       -7.31753822635284        2.66050923050839
C           -3.74141822584873       -6.49628874942846        1.80630976590574
C           -3.44580991615858       -6.98190987162214        0.53812459786085
C           -3.83127909078536       -8.28635336482463        0.14884382887198
C           -4.54203591609954       -9.08982106193870        1.02823460594658
C           -3.32387533377699       -8.47553292102816       -1.18459641722954
C           -3.37214236762850       -9.52166980314070       -2.09428666113341
C           -2.75942534217636       -9.35863972918361       -3.32454226725509
C           -2.10962990112867       -8.17111909991177       -3.65503741935689
C           -2.04960796476420       -7.11277666515815       -2.76729733210947
C           -2.65471283770031       -7.27574299586166       -1.52848250272067
N           -2.75023792579856       -6.38338795334200       -0.48571633559233
C           -2.19978966639625       -5.08625214750923       -0.46374959644780
C           -0.81201562794446       -4.93907841274417       -0.46287176350026
C           -0.24268363367404       -3.68891457052253       -0.42666090612593
C           -1.05570138437970       -2.54680543670815       -0.39260736008305
C           -0.47430209425294       -1.22876509955493       -0.33209174769374
N            0.85600228038831       -1.11188024331801       -0.27820316261126
C            1.36829684251035        0.11733179415751       -0.19093323417825
C            2.80190004326145        0.26917375856572       -0.12812758936277
C            3.64225620600117       -0.85313347692203       -0.12856585991987
C            5.00582800174691       -0.69273613667011       -0.06960073613861
C            5.56809115920423        0.58323967702238       -0.00917011361254
N            6.97079045671634        0.70892318794477        0.05469264274769
C            7.78387155416724        1.25381220895001       -0.91224785449412
C            7.44699321668987        1.75499677200437       -2.16269690426770
C            8.46917255640669        2.23911254217197       -2.95804062981528
C            9.79445490313023        2.21816820081049       -2.52828242499070
C           10.13802235628680        1.69561433727809       -1.29392958275752
C            9.13048007872727        1.20340896315632       -0.47698136613849
C            9.11296301936214        0.58011308847307        0.82008031188309
C           10.09630344252309        0.25541879723067        1.74328356412574
C            9.73481419791837       -0.35704570895403        2.93470453573603
C           10.76856428746930       -0.73074486053843        3.95391743519676
C            8.38559244965041       -0.63200717490249        3.19291146872098
C            7.38636786189348       -0.31816265687848        2.29467491896102
C            7.75794685140056        0.28471034139445        1.09920269965317
C            4.74753226031697        1.72164191085594        0.01657630918675
C            5.34007889680673        3.09235582159414        0.15072039012251
C            3.38029007908618        1.54345272086086       -0.05109055201871
N            0.60100228127519        1.22118513518742       -0.15455336083606
C           -0.72088104578611        1.04099813520606       -0.23200343745545
C           -1.57822063371983        2.20879735830048       -0.20892050368528
C           -2.96749356587211        2.07657604137161       -0.32163053459622
C           -3.76881198579219        3.19387289204901       -0.30386003070613
C           -3.20962924097874        4.46489218722486       -0.17031729355205
N           -4.06266112248228        5.58670950391427       -0.15588644666860
C           -4.11478781828387        6.57998726660228       -1.10688693052197
C           -3.40434849318086        6.69819020245820       -2.29413468507300
C           -3.65780104381002        7.80144906409810       -3.08818046175536
C           -4.60011321406581        8.75936697714342       -2.71966070948571
C           -5.32980750712706        8.63199185632599       -1.55087411555545
C           -5.09350285689809        7.53394671055765       -0.73652917822217
C           -5.66142211400540        7.07075862939592        0.50197057609309
C           -6.64163612775630        7.56248116248774        1.35160377053768
C           -6.96064737580471        6.85642606170200        2.50254421903531
C           -8.01389977891826        7.35514194744151        3.44529313016583
C           -6.28720321140911        5.66304608518839        2.79387540701970
C           -5.30659092859272        5.15179497820868        1.96871274508907
C           -4.99947880501045        5.86004669235664        0.81342746680185
C           -1.82270393248249        4.62051769121768       -0.02668070036676
C           -1.21809471686290        5.97477785491884        0.19229993438161
C           -1.03175931267572        3.48821132873541       -0.05820875377636
N           -1.29156102193309       -0.16102258458041       -0.33151774829943
C           -2.44789788617216       -2.71008572273081       -0.41915719980697
C           -3.03520884875202       -3.95843189707995       -0.45879641176697
C           -4.52538811393667       -4.10895985851125       -0.52589196643902
H           -5.85217318247131      -10.44653643057811        2.82865905349445
H           -6.56632698863260       -8.98140371672115        3.51390526914737
H           -5.05815999077872       -9.60782608606353        4.16818795959494
H           -4.68958145197710       -6.99594362864348        3.65259697257112
H           -3.41522518990212       -5.53630280943895        2.12436190286501
H           -4.84019532637180      -10.09846786103260        0.71426650571793
H           -3.88124689737871      -10.43717957298213       -1.87062496567425
H           -2.79002654037919      -10.14234518442790       -4.06756427656585
H           -1.65026414628355       -8.05001303249780       -4.63445036636960
H           -1.55543047258997       -6.17614440001383       -3.01961218412814
H           -0.19584305175540       -5.82775168462566       -0.47985905262173
H            0.82514229310543       -3.56687313232779       -0.40964422602885
H            3.19762481629218       -1.83630506260195       -0.16807751369712
H            5.66122589842410       -1.55039627914938       -0.07544188662103
H            6.40414268075930        1.76645215827774       -2.49761534404353
H            8.20818583552748        2.66526602642581       -3.93162705664740
H           10.54049308665951        2.63896653773653       -3.18525993228378
H           11.15770414163009        1.68701194886537       -0.99027180336453
H           11.13714520372815        0.48605740290142        1.51203741056591
H           10.79041437555357       -1.81389433834793        4.08521814422134
H           10.57554249434471       -0.26142917145941        4.88418843407927
H           11.77962626193570       -0.43130470315285        3.59970367542705
H            8.14570263588832       -1.11855735534803        4.11243068117854
H            6.36236160557124       -0.54192629244421        2.50489103007794
H            4.56584881773262        3.80605797543495        0.45184462593300
H            6.12254379872496        3.09896311551719        0.91341219375791
H            5.77155506942795        3.42389534478509       -0.77910450738885
H            2.71434699996155        2.39418786972853       -0.01198578463902
H           -3.39182755237877        1.08865453660248       -0.41256351128485
H           -4.83988315512546        3.10437775821630       -0.39498748640973
H           -2.66575205632738        5.93236588431392       -2.58135459972115
H           -3.07959695872159        7.90192815577414       -4.01828964284816
H           -4.73178923338737        9.59601900011873       -3.38749402987703
H           -6.04993019389547        9.36793375100969       -1.30945421010323
H           -7.14748370731641        8.49903987358326        1.08361696566383
H           -7.60969173601519        7.55731534154708        4.39989907528890
H           -8.46196777432880        8.30787764206185        3.04443043262278
H           -8.82520424165523        6.64272763469342        3.51603949319199
H           -6.56651606667015        5.15433601935211        3.68381846578224
H           -4.80374950952215        4.24848066488744        2.21292963088189
H           -1.81080311639109        6.54802868445232        0.91572117348146
H           -1.16714566059415        6.53385186014081       -0.72104863206037
H           -0.20477340964316        5.87121696197243        0.60128855582668
H            0.03949081517299        3.56513781655019        0.07772759308333
H           -3.06433653564292       -1.82554810596419       -0.38471022060198
H           -4.92529251765687       -4.45607497538042        0.45404606343237
H           -4.80936230902405       -4.84503321569776       -1.25740250296910
H           -4.99326303980793       -3.16041206970777       -0.74307424452891
