117

C     -4.072312  -10.457170    2.870596
C     -3.483273   -9.419819    1.960044
C     -3.301575   -8.109848    2.404494
C     -2.724358   -7.136960    1.581759
C     -2.330038   -7.502236    0.280871
C     -2.453696   -8.816231   -0.172238
C     -3.043492   -9.779604    0.676657
C     -1.886847   -8.880118   -1.481235
C     -1.718088   -9.926320   -2.414857
C     -1.112880   -9.667381   -3.648429
C     -0.680466   -8.385079   -3.964827
C     -0.834881   -7.332572   -3.058060
C     -1.429256   -7.602409   -1.809006
N     -1.735074   -6.765803   -0.739093
C     -1.423249   -5.380040   -0.676353
C     -0.078175   -5.009933   -0.796741
C      0.289617   -3.665444   -0.697237
C     -0.665295   -2.655198   -0.482917
C     -0.271369   -1.233842   -0.370425
N      1.031443   -0.955296   -0.315888
C      1.339011    0.337539   -0.213777
C      2.770638    0.702003   -0.134725
C      3.777748   -0.278922   -0.101132
C      5.130853    0.064363   -0.030445
C      5.513157    1.411039    0.004678
N      6.904620    1.703582    0.031358
C      7.590051    2.437864   -0.932364
C      7.158041    3.015801   -2.142490
C      8.087807    3.710308   -2.920926
C      9.414583    3.814570   -2.521308
C      9.846673    3.209201   -1.337714
C      8.927368    2.498316   -0.535569
C      9.056586    1.747650    0.671877
C     10.150652    1.447854    1.514490
C      9.967819    0.660214    2.661334
C     11.125421    0.370194    3.571235
C      8.689457    0.201747    2.981198
C      7.589750    0.485407    2.164608
C      7.795643    1.247739    0.998951
C      4.542482    2.426281    0.011565
C      4.859295    3.891901    0.141888
C      3.186548    2.049673   -0.078600
N      0.443663    1.324047   -0.172753
C     -0.833383    0.945797   -0.233583
C     -1.866308    2.004534   -0.194851
C     -3.237109    1.698392   -0.265509
C     -4.212012    2.700193   -0.244356
C     -3.834302    4.045726   -0.155998
N     -4.863093    5.026470   -0.195352
C     -4.988242    6.019783   -1.162466
C     -4.226446    6.296436   -2.314886
C     -4.595297    7.381172   -3.115011
C     -5.699576    8.160878   -2.793174
C     -6.472584    7.861834   -1.667603
C     -6.122854    6.768815   -0.844641
C     -6.714650    6.188442    0.317808
C     -7.863169    6.500511    1.079380
C     -8.202816    5.727165    2.200223
C     -9.403666    6.088841    3.023984
C     -7.380375    4.663969    2.574434
C     -6.239123    4.332938    1.836151
C     -5.929351    5.098941    0.696235
C     -2.479968    4.399044   -0.040972
C     -1.993200    5.809862    0.153385
C     -1.519043    3.368263   -0.082119
N     -1.241452   -0.319907   -0.329476
C     -2.014743   -3.057534   -0.386611
C     -2.417779   -4.404375   -0.497436
C     -3.891127   -4.706938   -0.445920
H     -4.638776  -11.200140    2.298890
H     -4.764194  -10.002363    3.587767
H     -3.275590  -10.965759    3.422606
H     -3.606496   -7.828596    3.410915
H     -2.579367   -6.126757    1.953429
H     -3.142910  -10.805569    0.331897
H     -2.059637  -10.930152   -2.178942
H     -0.986858  -10.474357   -4.366197
H     -0.222200   -8.194608   -4.932903
H     -0.511514   -6.331211   -3.327012
H      0.698782   -5.760262   -0.933276
H      1.345164   -3.410901   -0.782626
H      3.514055   -1.334939   -0.138412
H      5.876417   -0.728850   -0.037876
H      6.128376    2.924909   -2.475722
H      7.767863    4.169600   -3.853440
H     10.126064    4.357218   -3.138643
H     10.890481    3.276218   -1.044626
H     11.136273    1.832721    1.266458
H     11.029954   -0.626341    4.015305
H     11.167844    1.114939    4.372196
H     12.072433    0.390123    3.021365
H      8.532093   -0.384046    3.885130
H      6.601536    0.131862    2.443862
H      4.071063    4.404545    0.704988
H      5.787804    4.061567    0.694872
H      4.929875    4.357939   -0.844461
H      2.429715    2.835081   -0.087620
H     -3.562187    0.662640   -0.353257
H     -5.259580    2.418272   -0.335192
H     -3.371980    5.683819   -2.587552
H     -4.012657    7.613019   -4.003558
H     -5.974565    9.000065   -3.427288
H     -7.347017    8.463059   -1.435783
H     -8.481450    7.346682    0.791180
H     -9.138559    6.861875    3.751793
H    -10.212970    6.461987    2.387576
H     -9.789784    5.216519    3.561906
H     -7.617802    4.076728    3.459724
H     -5.605147    3.510889    2.155460
H     -1.102262    5.821906    0.791682
H     -2.737466    6.432438    0.658581
H     -1.730856    6.260729   -0.807459
H     -0.465044    3.639392   -0.008477
H     -2.781438   -2.297012   -0.233606
H     -4.222310   -4.824921    0.589612
H     -4.143571   -5.606573   -1.015322
H     -4.464539   -3.889708   -0.898074
