  94
 
 C          2.4410468264        4.0000494428       -3.2554453478
 C          2.5535913453        4.6399779889       -1.9224816456
 N          3.2098331638        5.7285093747       -1.6797872718
 C          3.0772313921        5.9722950668       -0.3329371078
 C          3.5602946283        7.0166363428        0.4442544541
 C          3.2475039937        7.0099874938        1.7889648132
 C          2.4657203700        6.0022477521        2.3534975213
 C          1.9728458981        4.9556418427        1.5964069686
 C          2.3057508531        4.9467988465        0.2547922090
 N          1.9679405823        4.1020350648       -0.7869199793
 C          1.2382245822        2.9218072018       -0.6848977414
 C          0.0736980873        2.7550740402       -1.4389212630
 C         -0.6902848466        1.6140914614       -1.3305076448
 S         -2.1777919950        1.5642337810       -2.3802630814
 O         -1.8668929532        0.7846313178       -3.5548588014
 O         -2.5323547255        2.9476401547       -2.6068160924
 C         -3.4617848867        0.7801557142       -1.4275832654
 C         -3.8479891695        1.3728591570       -0.2399679526
 C         -4.8158644802        0.7611764490        0.5318370311
 C         -5.4125375252       -0.4367740625        0.1329540086
 C         -6.4284549931       -1.0993628878        1.0468417107
 C         -5.7162133735       -1.4496464299        2.3626378134
 C         -7.0034498616       -2.3875880199        0.4527744145
 C         -7.5902317141       -0.1307134877        1.3121287688
 C         -5.0239052548       -0.9881842072       -1.0840965680
 C         -4.0496115242       -0.3880334318       -1.8643551891
 C         -0.3252066302        0.5962853650       -0.4515397990
 N         -1.0840341419       -0.5687848370       -0.3001692841
 C         -1.7811995951       -0.9670461844        0.8295751592
 C         -1.8003982324       -0.1565191347        2.0690626192
 N         -2.3896793983       -2.0982018124        0.6675668725
 C         -2.0918171369       -2.5240820575       -0.6046653815
 C         -2.4550249281       -3.6850310020       -1.2755328450
 C         -1.9760795584       -3.8583059599       -2.5583352807
 C         -1.1437595148       -2.9159108561       -3.1641464856
 C         -0.7653881630       -1.7566981966       -2.5133433857
 C         -1.2666079093       -1.5683517151       -1.2381036291
 C          0.8417955655        0.7577049351        0.2960104165
 C          1.6185458630        1.8912002419        0.1743345204
 S          3.1763820229        1.8820348335        1.1173455242
 O          2.8493031777        2.1345186853        2.5011726574
 O          4.1293132998        2.7538219187        0.4803943129
 C          3.7262012503        0.1897574469        0.9429500757
 C          4.2624017380       -0.2164027984       -0.2624770263
 C          4.6753424244       -1.5292001729       -0.4173644078
 C          4.5590264784       -2.4483995002        0.6230317886
 C          4.9976406207       -3.8977655879        0.4913663306
 C          6.0957034655       -4.1787085807        1.5284792051
 C          5.5549900751       -4.2224988339       -0.8975690808
 C          3.7876996973       -4.8088327408        0.7497771830
 C          4.0209608740       -2.0038752308        1.8321268828
 C          3.6050013610       -0.6962450712        1.9973497286
 H          2.5148833452        2.9176395006       -3.1728280172
 H          1.4872815357        4.2462213393       -3.7222644671
 H          3.2389527833        4.3775785860       -3.8885918880
 H          4.1537704892        7.8002437131        0.0007323354
 H          3.6108315649        7.8057315682        2.4223316834
 H          2.2397214702        6.0385926588        3.4086489607
 H          1.3763167718        4.1738440881        2.0408574025
 H         -0.2715834288        3.5351410029       -2.0996215874
 H         -3.3892983997        2.3036794756        0.0581838228
 H         -5.1008302589        1.2246068240        1.4624154124
 H         -6.3823551085       -2.0208948622        3.0046751850
 H         -4.8300160669       -2.0456905433        2.1550693915
 H         -5.4144553123       -0.5536678476        2.8973770245
 H         -6.2217237326       -3.1265370368        0.2994717322
 H         -7.5088783991       -2.1944336069       -0.4905219337
 H         -7.7321295074       -2.8075096560        1.1427475824
 H         -8.3254534395       -0.6051810747        1.9578646194
 H         -7.2522173958        0.7805224164        1.7965080362
 H         -8.0763946215        0.1395929988        0.3770232759
 H         -5.4641747970       -1.9035147058       -1.4396011629
 H         -3.7310029202       -0.8154491462       -2.8022116648
 H         -0.8730385843       -0.2890710859        2.6259201308
 H         -1.9117342505        0.9000582970        1.8372618584
 H         -2.6265593587       -0.4890062494        2.6894438193
 H         -3.0803574857       -4.4219448091       -0.7981209734
 H         -2.2414394540       -4.7488451289       -3.1084394193
 H         -0.7836266947       -3.0966297145       -4.1657255729
 H         -0.1276692255       -1.0260114480       -2.9849617477
 H          1.1551805584       -0.0252561098        0.9690076117
 H          4.3653084177        0.5019015254       -1.0608671769
 H          5.0930589362       -1.8233508008       -1.3650377397
 H          6.9405045597       -3.5109485563        1.3729068418
 H          6.4439487333       -5.2040961719        1.4292705269
 H          5.7327994258       -4.0394882452        2.5425813843
 H          4.8071935630       -4.0572305465       -1.6694612669
 H          5.8444666660       -5.2704361372       -0.9320010127
 H          6.4371990698       -3.6256303863       -1.1163282142
 H          2.9921047767       -4.5917999035        0.0397960137
 H          4.0788274547       -5.8499857346        0.6330161159
 H          3.3954005097       -4.6772666673        1.7537934387
 H          3.9229657600       -2.6832708724        2.6635524100
 H          3.1967969259       -0.3422160670        2.9315787969
