  57
 
 O          4.5083494878        2.0916556897        1.0780031700
 C          4.8990038016        1.0305173251        0.6249385420
 C          6.2831283413        0.8825195703        0.1108482917
 C          6.9548712340        2.0275773293       -0.3244656456
 C          8.2365729157        1.9383606037       -0.8367675449
 C          8.8728654781        0.7084896406       -0.9191771534
 C          8.2241830655       -0.4345287289       -0.4742197841
 C          6.9430739518       -0.3395711085        0.0290697101
 S          6.1412779505       -1.7849498286        0.7062835946
 O          6.5431902148       -2.9673028289       -0.0187298048
 O          6.3757079565       -1.7942097232        2.1353706445
 C          4.4125314605       -1.4462501837        0.4333866753
 C          3.5149241025       -2.4835527588        0.2777396281
 C          2.1620261394       -2.2145250638        0.1657771604
 C          1.6902540783       -0.9004766609        0.2271333592
 C          0.2533091000       -0.6149749853        0.1400012957
 C         -0.5739900828       -1.3517082762       -0.7086321900
 C         -1.9263247045       -1.0933067332       -0.7812838032
 C         -2.4989131732       -0.0949720100        0.0080476826
 N         -3.8761870907        0.1548364067       -0.0494643761
 C         -4.7709960132       -0.9114735566       -0.1739996357
 C         -4.5174143243       -2.1266525416        0.4661535238
 C         -5.3959138430       -3.1841085303        0.3407420875
 C         -6.5406918998       -3.0298225721       -0.4236576647
 Br        -7.7650051254       -4.4967526008       -0.5971316228
 C         -6.8149601412       -1.8331367737       -1.0649936341
 C         -5.9298914028       -0.7806227698       -0.9424375895
 C         -4.3518654218        1.4663038806        0.0308926610
 C         -3.6471612692        2.5126234167       -0.5684311280
 C         -4.1135732654        3.8097005907       -0.4906663051
 C         -5.2946291757        4.0680914201        0.1853144156
 Br        -5.9496501371        5.8683964152        0.2901021794
 C         -6.0104760087        3.0465371499        0.7874601604
 C         -5.5368905458        1.7519358603        0.7125303822
 C         -1.6761708291        0.6467040236        0.8568503711
 C         -0.3220777689        0.3932440015        0.9145498247
 C          2.6125512049        0.1322180502        0.3847711337
 C          3.9785044855       -0.1247598981        0.4837763131
 H          6.4458077636        2.9772752847       -0.2539363393
 H          8.7421815227        2.8312278625       -1.1710150251
 H          9.8716668542        0.6371940790       -1.3208708550
 H          8.6906940492       -1.4066445908       -0.5121584006
 H          3.8957857807       -3.4926678767        0.2494353602
 H          1.4646603808       -3.0306287958        0.0585137983
 H         -0.1477644153       -2.1126700673       -1.3440629897
 H         -2.5496679699       -1.6618967014       -1.4550704246
 H         -3.6295379039       -2.2389988347        1.0692002853
 H         -5.1971301204       -4.1190799902        0.8412253362
 H         -7.7069626797       -1.7274798541       -1.6628897775
 H         -6.1343902702        0.1496988116       -1.4500090287
 H         -2.7321953826        2.3055630783       -1.1018740097
 H         -3.5674514527        4.6131669681       -0.9601400899
 H         -6.9249268865        3.2609753514        1.3184623055
 H         -6.0865766534        0.9551954705        1.1901313890
 H         -2.1081047305        1.4164001232        1.4788560184
 H          0.2924501623        0.9596341910        1.5973956889
 H          2.2879202059        1.1616822495        0.4131188341
