  96
 
 C         -3.3617060400       -1.9478782341       -3.6991057978
 C         -4.1946195998       -2.5278947492       -2.7570541333
 C         -4.6208909708       -1.7982150446       -1.6618594534
 C         -4.2248948057       -0.4758886757       -1.4917399748
 C         -4.6904000138        0.3088008020       -0.2644330805
 C         -6.0928964203        0.8595476442       -0.4388231835
 C         -6.8051599910        0.7303063375       -1.6223285479
 C         -8.0823170966        1.2567861086       -1.7354089635
 C         -8.6623541527        1.9209678970       -0.6696518113
 C         -7.9554225953        2.0612898242        0.5141774492
 C         -6.6819008335        1.5365510528        0.6272428157
 C         -4.6026353603       -0.6325023579        0.9264867337
 C         -5.6948097663       -1.2312096380        1.5327231492
 C         -5.5220112429       -2.1200759614        2.5811444974
 C         -4.2460578584       -2.4173242060        3.0386938711
 C         -3.1451298728       -1.8377640314        2.4404840930
 C         -3.3151262253       -0.9583750701        1.3729674226
 N         -2.2231843982       -0.3197651113        0.7712469256
 C         -1.0822982764       -1.0034764607        0.4304405002
 C         -1.1125152233       -2.3873042250        0.3192713608
 N         -0.0011347035       -3.0905002383        0.0555115206
 C          1.1103193037       -2.3975370244       -0.2340033541
 C          1.0800300485       -1.0188669681       -0.3967487263
 N          2.2213667153       -0.3480975169       -0.7613301763
 C          2.4345769129        1.0221111549       -0.5276509718
 C          1.4696672716        1.9700403856       -0.8470204076
 C          1.7473526106        3.3129457160       -0.6802211618
 C          2.9821622734        3.7151868686       -0.1952243736
 C          3.9491320200        2.7711193174        0.1099428231
 C          3.6942871418        1.4207572789       -0.0652334501
 C          4.6873129778        0.3174194759        0.2568250907
 C          4.2209201256       -0.4196247256        1.5129395288
 C          4.6101851395       -1.7368652239        1.7309466491
 C          4.1830348004       -2.4231670312        2.8535188408
 C          3.3561146211       -1.8039445849        3.7756274663
 C          2.9746573244       -0.4891471410        3.5734008509
 C          3.4072035810        0.1998143236        2.4531807330
 C          6.0897361632        0.8745552395        0.4105690712
 C          6.6768560066        1.5144496603       -0.6791913760
 C          7.9501611690        2.0435784662       -0.5862036143
 C          8.6588607038        1.9446709842        0.6007732221
 C          8.0810822258        1.3166642617        1.6894226647
 C          6.8039850678        0.7860608371        1.5965691702
 C          4.6011662503       -0.6675004357       -0.8982940655
 C          5.6946392430       -1.2893088550       -1.4784781892
 C          5.5241636311       -2.2162636196       -2.4937244702
 C          4.2493339435       -2.5288783747       -2.9440676928
 C          3.1471370311       -1.9268229039       -2.3709897868
 C          3.3146980583       -1.0086538859       -1.3362289338
 N         -0.0012578178       -0.3029688924        0.0032578721
 C         -2.4365324683        1.0415321246        0.4900606634
 C         -1.4710289622        2.0001473658        0.7735935014
 C         -1.7493415028        3.3362746296        0.5597959563
 C         -2.9853400204        3.7210147239        0.0637734894
 C         -3.9528809909        2.7667174561       -0.2057457908
 C         -3.6972506880        1.4234009623        0.0160785833
 C         -3.4056912347        0.1038714021       -2.4522181499
 C         -2.9738512502       -0.6284779637       -3.5448893809
 H         -3.0207997656       -2.5202434211       -4.5494503115
 H         -4.5106803672       -3.5546944190       -2.8717772305
 H         -5.2689178442       -2.2611139911       -0.9315859586
 H         -6.3653704120        0.2174209626       -2.4646709949
 H         -8.6231657733        1.1458166787       -2.6641411953
 H         -9.6581522877        2.3296189069       -0.7597017817
 H         -8.3972949127        2.5817780422        1.3514489542
 H         -6.1320832510        1.6506387327        1.5509422150
 H         -6.6901947281       -1.0108932197        1.1772346325
 H         -6.3829973665       -2.5814098161        3.0399962957
 H         -4.1094322393       -3.1000939932        3.8634775013
 H         -2.1473842089       -2.0541463702        2.7934156425
 H         -2.0391418445       -2.9368353505        0.3769147796
 H          2.0370427551       -2.9487639401       -0.2702881589
 H          0.5122710721        1.6439555160       -1.2182989353
 H          0.9983797670        4.0461240248       -0.9374783971
 H          3.1949951336        4.7638849143       -0.0528350656
 H          4.9067304337        3.0893898390        0.4934931585
 H          5.2536416944       -2.2302146554        1.0167941310
 H          4.4938780188       -3.4467857333        3.0051037085
 H          3.0148084068       -2.3421932725        4.6477946178
 H          2.3361524062        0.0067147999        4.2904983625
 H          3.1053387703        1.2273578209        2.3122453634
 H          6.1255760741        1.5961418493       -1.6054559007
 H          8.3903573044        2.5350533894       -1.4417229224
 H          9.6544895212        2.3568348939        0.6752955187
 H          8.6235577431        1.2377475452        2.6204773796
 H          6.3659350469        0.3021066954        2.4567684138
 H          6.6891106826       -1.0568259784       -1.1282014027
 H          6.3860709432       -2.6949978921       -2.9325804526
 H          4.1146959023       -3.2407816280       -3.7442107419
 H          2.1503545102       -2.1556854484       -2.7186853870
 H         -0.5128131060        1.6874434405        1.1541810580
 H         -0.9999198553        4.0782339007        0.7889904853
 H         -3.1987289282        4.7640338974       -0.1149846035
 H         -4.9114431731        3.0711894156       -0.5979440589
 H         -3.0989402668        1.1343754616       -2.3488512511
 H         -2.3310320496       -0.1627954258       -4.2782696374
