  64
 
 C         -7.7130835871       -0.7285324421       -0.7392066261
 C         -6.5853424450       -0.7945093765        0.3108090428
 C         -7.1320905605       -1.3521658946        1.6406216473
 C         -6.0631352611        0.6048353736        0.5505544893
 C         -6.9197905069        1.5905597365        1.0218200323
 C         -6.4869771015        2.8820153719        1.2620062691
 C         -5.1594845440        3.2159248351        1.0298391628
 C         -4.2860608694        2.2617405517        0.5619801381
 C         -4.7208382440        0.9497254584        0.3135953519
 N         -3.8227424613        0.0174686909       -0.1544599813
 C         -2.4681338173        0.4090449978       -0.3669284357
 C         -2.0774078400        0.9775585749       -1.5810113146
 C         -0.7699281535        1.3471753010       -1.7734883820
 C          0.2041890283        1.1458180517       -0.7730066966
 C          1.5591642401        1.6007941750       -1.0223365392
 O          1.7764776972        2.4931700326       -1.9047036603
 C          2.6765963609        1.0435114628       -0.2841006768
 C          2.6791160355       -0.2557210937        0.2633584865
 C          3.7812550793       -0.7396319591        0.9245812447
 C          4.9314069884        0.0430463002        1.0405044497
 S          6.3049009290       -0.5863789974        1.9603818411
 C          7.6795805430       -0.3558853579        0.8609032557
 C          7.5195792082       -0.2801166832       -0.5169579021
 C          8.6317498296       -0.1177004749       -1.3227671236
 C          9.8986317582       -0.0422354217       -0.7656755597
 C         10.0544550169       -0.1333211420        0.6094415959
 C          8.9501364162       -0.2898142984        1.4249066250
 C          4.9652134931        1.3207431925        0.4739316730
 C          3.8687182380        1.7959291585       -0.1958725790
 C         -0.2200110244        0.6110800577        0.4578032817
 C         -1.5305818224        0.2444928198        0.6540004027
 C         -4.1867412355       -1.2848606250       -0.4117937904
 C         -3.2253331543       -2.1849927860       -0.8990688896
 C         -3.5564870848       -3.4934865581       -1.1643983233
 C         -4.8553390346       -3.9337792985       -0.9481660629
 C         -5.8073209094       -3.0502069311       -0.4729163650
 C         -5.5052690767       -1.7231979905       -0.1979458142
 H         -8.5184835556       -0.0851410614       -0.3984680240
 H         -7.3263921819       -0.3309779613       -1.6756553212
 H         -8.1213718899       -1.7167947243       -0.9271043967
 H         -6.3349165014       -1.3989213006        2.3800695127
 H         -7.5328532989       -2.3516050026        1.5022407609
 H         -7.9234119192       -0.7173329281        2.0272094299
 H         -7.9542563016        1.3500939341        1.2097121268
 H         -7.1787690241        3.6243714781        1.6291521029
 H         -4.8070579907        4.2191801827        1.2146084612
 H         -3.2539017362        2.5179911841        0.3824988822
 H         -2.8104642614        1.1211816774       -2.3616445726
 H         -0.4494810602        1.7958884769       -2.7026357031
 H          1.8201191143       -0.8955110958        0.1300167800
 H          3.7764498139       -1.7363464997        1.3415045403
 H          6.5345151345       -0.3484655985       -0.9547065780
 H          8.5037398854       -0.0561739125       -2.3934311380
 H         10.7617378341        0.0846737201       -1.4015963716
 H         11.0391489865       -0.0784010968        1.0490312191
 H          9.0578996383       -0.3582019680        2.4968574185
 H          5.8567564412        1.9251948243        0.5639098536
 H          3.8804771417        2.7760624384       -0.6509723894
 H          0.4814032008        0.5262290322        1.2736662661
 H         -1.8480242469       -0.1603200450        1.6043585797
 H         -2.2179553463       -1.8385475868       -1.0674329060
 H         -2.8044770511       -4.1707398675       -1.5394110037
 H         -5.1237810805       -4.9590044225       -1.1515465227
 H         -6.8115883351       -3.4103061700       -0.3147292603
