  59
 
 C          7.6026543767       -1.1924777655       -0.8797607181
 C          6.3129670071       -1.2940799055       -1.6846301297
 C          5.0771325962       -1.1577455471       -0.7984865305
 C          3.7815675558       -1.2584742643       -1.5991471824
 C          2.5476181767       -1.1249668438       -0.7111489505
 C          1.2568944867       -1.2301259404       -1.5193433152
 C         -0.0029935472       -1.1041880418       -0.6413657829
 C         -1.2609775205       -1.2229672957       -1.5232621372
 C         -2.5532538444       -1.1088093712       -0.7187996038
 C         -3.7859364720       -1.2372533049       -1.6092640274
 C         -5.0822906809       -1.1271857024       -0.8111103844
 C         -6.3176039312       -1.2594862996       -1.6985546247
 C         -7.6076637195       -1.1500975087       -0.8952998656
 C         -0.0081853695       -2.1313165663        0.4668159991
 C         -0.0112639004       -3.4886504984        0.3853414603
 C         -0.0168750879       -4.2519032139        1.5682811148
 C         -0.0194192850       -3.6218073574        2.8295037579
 C         -0.0163261134       -2.2639542896        2.9474260759
 C         -0.0104054471       -1.4671540706        1.7583404244
 C         -0.0061748111       -0.1007193319        1.5700921242
 C         -0.0062752318        0.9948838334        2.5015455663
 C         -0.0014512092        2.2665125942        2.0296711257
 C          0.0037540725        2.5164735523        0.6329549923
 Br         0.0100544854        4.3041894237        0.0214735737
 C          0.0038985473        1.4620791948       -0.3143531949
 C         -0.0010215241        0.1877356945        0.1409585584
 H          8.4692510945       -1.2923231341       -1.5292146263
 H          7.6614538769       -0.2310904859       -0.3740573482
 H          7.6451231717       -1.9769971774       -0.1272384761
 H          6.2980685398       -0.5110239447       -2.4462313404
 H          6.2819066047       -2.2567494642       -2.2002983991
 H          5.1078099713       -0.1952514024       -0.2823160950
 H          5.0912345581       -1.9405946391       -0.0363375125
 H          3.7514822805       -2.2204350707       -2.1168510745
 H          3.7660321930       -0.4742714161       -2.3600577068
 H          2.5744489698       -0.1626195302       -0.1940497995
 H          2.5614416023       -1.9077403298        0.0512639962
 H          1.2311757233       -2.1924305353       -2.0350983311
 H          1.2392669634       -0.4443864804       -2.2777348636
 H         -1.2360733364       -0.4381247746       -2.2823776505
 H         -1.2398042503       -2.1859804964       -2.0378939129
 H         -2.5734139780       -1.8898516431        0.0452627035
 H         -2.5759682947       -0.1452360878       -0.2037973044
 H         -3.7643595848       -0.4549628741       -2.3719955973
 H         -3.7603718342       -2.2006147690       -2.1245851984
 H         -5.1017385420       -1.9076909861       -0.0466581518
 H         -5.1085504245       -0.1630326468       -0.2978087123
 H         -6.2905193208       -2.2233984155       -2.2121030001
 H         -6.2980991226       -0.4781390499       -2.4618122289
 H         -7.6545942574       -1.9328045672       -0.1411468859
 H         -8.4740576830       -1.2472479946       -1.5454214175
 H         -7.6624378581       -0.1873808695       -0.3916866405
 H         -0.0095856444       -3.9920252534       -0.5707248070
 H         -0.0194247563       -5.3288502083        1.5107892703
 H         -0.0239491703       -4.2410574405        3.7151634105
 H         -0.0182905426       -1.7810952888        3.9122591279
 H         -0.0102424639        0.7928777902        3.5608178668
 H         -0.0014816130        3.1101813366        2.7034883542
 H          0.0077165798        1.6976371978       -1.3677834889
