88

C     11.925731   -3.689504   -0.536690
C     11.476987   -2.686951   -1.392758
C     10.151482   -2.249595   -1.323849
C      9.252083   -2.806974   -0.399706
C      7.855065   -2.346097   -0.329119
C      6.793383   -3.255125   -0.462686
C      5.450038   -2.859256   -0.404721
C      5.176975   -1.501692   -0.205184
C      6.225821   -0.533662   -0.062326
C      7.561733   -0.983313   -0.128080
C      5.626862    0.767056    0.128443
C      5.924409    2.120843    0.327820
C      4.823852    3.044032    0.461626
C      5.113363    4.475181    0.669500
C      5.883321    5.197569   -0.256647
C      6.156261    6.554026   -0.061756
C      5.663978    7.209397    1.064221
C      4.899308    6.510227    1.994834
C      4.626031    5.154061    1.798238
C      3.448737    2.612417    0.396486
C      3.195808    1.249796    0.195879
C      2.136431    0.279046    0.046750
C      0.728585    0.375016    0.051998
C     -0.072674   -0.770393   -0.119482
C     -1.540746   -0.661988   -0.117439
C     -2.321618   -1.415139    0.768668
C     -3.718799   -1.314458    0.763620
C     -4.391885   -0.455760   -0.122496
C     -5.866848   -0.365993   -0.110212
C     -6.550302    0.803993   -0.383937
C     -7.931477    0.757772   -0.344308
C     -8.780903    1.936103   -0.616047
C     -8.394593    3.238469   -0.247424
C     -9.209855    4.342940   -0.517706
C    -10.432258    4.168406   -1.159796
C    -10.842744    2.891018   -1.527443
C    -10.026455    1.789222   -1.255320
N     -8.592056   -0.383730   -0.061864
C     -7.859541   -1.478483    0.204425
C     -8.576691   -2.729310    0.526672
C     -9.981356   -2.767235    0.629054
C    -10.662333   -3.950553    0.934347
C     -9.952217   -5.128425    1.145200
C     -8.564036   -5.123723    1.050977
C     -7.886866   -3.938243    0.745553
N     -6.515854   -1.507953    0.195946
C     -3.602949    0.291426   -1.013233
C     -2.204476    0.192186   -1.008813
C      0.552666   -2.015092   -0.295427
C      1.946275   -2.163122   -0.309492
C      2.727039   -1.014832   -0.139066
N      4.050715   -0.771630   -0.099293
C      4.306686    0.491990    0.086567
C      9.725168   -3.817097    0.454352
C     11.050706   -4.254737    0.387393
H     12.956504   -4.029759   -0.589539
H     12.156346   -2.245376   -2.117040
H      9.818068   -1.472767   -2.009135
H      7.010214   -4.310059   -0.630502
H      4.659935   -3.593118   -0.516729
H      8.368265   -0.263241   -0.010733
H      6.952134    2.464718    0.389913
H      6.268346    4.705708   -1.147706
H      6.751172    7.097295   -0.791151
H      5.876525    8.264293    1.216530
H      4.516579    7.018030    2.876265
H      4.035556    4.622611    2.541920
H      2.635357    3.325144    0.489103
H      0.266177    1.347860    0.201050
H     -1.847721   -2.086439    1.482340
H     -4.287760   -1.917649    1.470313
H     -6.025590    1.719753   -0.620627
H     -7.457528    3.411447    0.277192
H     -8.891754    5.338443   -0.218333
H    -11.067258    5.025622   -1.367457
H    -11.799065    2.746341   -2.023332
H    -10.369151    0.798384   -1.551059
H    -10.561985   -1.859235    0.471128
H    -11.746800   -3.947059    1.006978
H    -10.479758   -6.048449    1.382547
H     -8.003325   -6.040490    1.213705
H     -6.800210   -3.963619    0.675883
H     -4.064521    0.948841   -1.746909
H     -1.634471    0.777978   -1.727994
H     -0.058653   -2.905908   -0.440273
H      2.389317   -3.142183   -0.452913
H      9.060692   -4.264033    1.191062
H     11.398398   -5.035212    1.059249
