  92
 
 C         -0.0279848329        2.3721419133        1.4692990662
 C          0.0085822085        1.8025190954        0.0395486222
 C          0.0516349375        2.9477336830       -0.9882532865
 C          1.2601760864        0.9587912404       -0.1105130056
 C          2.4998239435        1.5490066374        0.0745530802
 C          3.6829043613        0.8273075881       -0.0257511778
 N          4.9133748050        1.4640860104        0.1889177507
 C          5.2294793375        2.2591060998        1.2714994322
 C          4.4726959910        2.5680904477        2.3931747249
 C          5.0426793293        3.3829879656        3.3521217146
 C          6.3381569443        3.8761267538        3.2113566388
 C          7.1054367254        3.5511750500        2.1108151842
 C          6.5543991001        2.7337748053        1.1327308493
 C          7.0538265199        2.1922048049       -0.0996449491
 C          8.2631960189        2.3055499531       -0.7728162721
 C          8.4120659939        1.6527122140       -1.9798360974
 C          7.3689509809        0.9062920045       -2.5240688299
 C          6.1568175313        0.7786622095       -1.8737867336
 C          6.0090011403        1.4132796097       -0.6486279023
 C          3.6239571990       -0.5259955710       -0.3363117680
 C          2.4015104424       -1.1258680700       -0.5448563454
 C          1.2111805565       -0.4021761517       -0.4307412034
 N         -0.0018027828       -1.0396528394       -0.6365468279
 C         -0.0052091312       -2.4184159494       -0.9809773519
 C          0.0124055344       -2.7934320369       -2.3210876308
 C          0.0117344714       -4.1379272974       -2.6660020977
 C         -0.0053583335       -5.0739711357       -1.6593871391
 C         -0.0231151097       -4.7204409116       -0.3119262993
 C         -0.0238435831       -3.3743211473        0.0295453800
 C         -0.0384293436       -5.8599844670        0.6053138708
 C         -0.0562145111       -5.8173520725        1.9946922077
 C         -0.0680362387       -7.0057376113        2.7078670159
 C         -0.0623022981       -8.2298364786        2.0568801352
 C         -0.0444713725       -8.2830303074        0.6682158138
 C         -0.0329663143       -7.0995356641       -0.0296402538
 S         -0.0085467034       -6.8658586872       -1.8109605867
 O          1.2269170451       -7.3314765042       -2.3768399457
 O         -1.2312155853       -7.3238337382       -2.4098953257
 C         -1.2100237291       -0.3698271854       -0.5296860897
 C         -2.4055512910       -1.0599267798       -0.7489212193
 C         -3.6237466268       -0.4229962748       -0.6589778627
 C         -3.6728980435        0.9251742125       -0.3252037048
 N         -4.8986467773        1.5984187964       -0.2247369363
 C         -5.2094225981        2.7979920849       -0.8320242560
 C         -4.4508618121        3.5742406408       -1.6970746634
 C         -5.0152204735        4.7374747277       -2.1837433701
 C         -6.3068499725        5.1227783031       -1.8307802450
 C         -7.0759817377        4.3418805625       -0.9917132682
 C         -6.5305245745        3.1678733264       -0.4889941046
 C         -7.0333824771        2.1323935393        0.3691008948
 C         -8.2414428615        1.9381028142        1.0258126571
 C         -8.3947066040        0.8123886018        1.8097847731
 C         -7.3570512320       -0.1059971583        1.9551501185
 C         -6.1462543473        0.0652100240        1.3123770801
 C         -5.9941042879        1.1828054757        0.5040112083
 C         -2.4846091221        1.6071245019       -0.0938721920
 C         -1.2492094226        0.9891590046       -0.1998490878
 H          0.8442658646        2.9906616175        1.6615675416
 H         -0.0414616052        1.5588709525        2.1927042281
 H         -0.9138562268        2.9815314109        1.6230970111
 H          0.0600192407        2.5403216117       -1.9975717990
 H         -0.8158089468        3.5935602907       -0.8839110611
 H          0.9425341875        3.5551510450       -0.8570696967
 H          2.5671950496        2.6027730347        0.2956743382
 H          3.4758326485        2.1734784013        2.5216175010
 H          4.4724694784        3.6406970654        4.2327029529
 H          6.7465366013        4.5132117883        3.9817234691
 H          8.1152564011        3.9193709156        2.0097553580
 H          9.0661555635        2.8961204072       -0.3580107806
 H          9.3454423343        1.7251647385       -2.5180229378
 H          7.5103006185        0.4186545445       -3.4774368821
 H          5.3487855254        0.2118200752       -2.3112526753
 H          4.5309005247       -1.1065206131       -0.4027559508
 H          2.3664285256       -2.1758795672       -0.7912928148
 H          0.0259159589       -2.0288774355       -3.0826722234
 H          0.0251645783       -4.4524743930       -3.6972755992
 H         -0.0366165352       -3.0540986460        1.0599398246
 H         -0.0604518133       -4.8729223191        2.5162991642
 H         -0.0817063441       -6.9762772012        3.7870960980
 H         -0.0715037641       -9.1444721633        2.6292916931
 H         -0.0394450545       -9.2227326898        0.1392598272
 H         -2.3775344667       -2.1076163483       -1.0060104679
 H         -4.5348637759       -0.9650490997       -0.8589598908
 H         -3.4573377028        3.2730997783       -1.9938614142
 H         -4.4436754790        5.3604093372       -2.8561819566
 H         -6.7108743252        6.0411532264       -2.2300840965
 H         -8.0830208512        4.6314708687       -0.7318291802
 H         -9.0402030434        2.6573280776        0.9245933017
 H         -9.3273182853        0.6405728865        2.3263460991
 H         -7.5017641102       -0.9701543491        2.5869300427
 H         -5.3423510538       -0.6434364157        1.4439355048
 H         -2.5443307905        2.6481195051        0.1829452823
