  48
 
 C          1.7971781746       -2.6848262687        0.5936580299
 C          0.7105981341       -1.6115471789        0.6148934274
 C          0.3196553275       -1.4393500286        2.1059592092
 C         -0.5283090567       -2.0563327420       -0.1378066633
 C         -0.7423792964       -3.3474132551       -0.5940593531
 C         -1.9448685640       -3.7127498460       -1.1769935711
 C         -2.9571294965       -2.7796971723       -1.3119435819
 C         -2.7563164480       -1.4794254032       -0.8921968037
 C         -1.5440555878       -1.1097318224       -0.3130350092
 N         -1.3048637696        0.2084553254        0.0647182945
 C         -2.4103156098        1.1063318204        0.0812281321
 C         -3.2518198168        1.1143993927        1.1859673739
 C         -4.3434738954        1.9652581755        1.2157248713
 C         -4.5976358732        2.8081078938        0.1465665178
 C         -3.7622860875        2.7955346356       -0.9591441029
 C         -2.6716645171        1.9451319974       -0.9972137805
 C         -0.0069306090        0.6819413641        0.0996258454
 C          0.2073893459        2.0771327715        0.1492801178
 C          1.4672954292        2.5836963204        0.1134123417
 C          2.5683901485        1.7287319456       -0.0974334168
 C          3.8466298397        2.2781666615       -0.2731449016
 C          4.9347322122        1.4760612776       -0.5440198169
 C          6.2162519006        2.0305032025       -0.7188537947
 N          7.2659906275        2.4781798323       -0.8587443796
 C          4.7363262756        0.0849263689       -0.6855311692
 C          3.5033925093       -0.4636924970       -0.4877200589
 C          2.3683899713        0.3109762960       -0.1332021052
 C          1.0726402249       -0.2097241722        0.1227942058
 H          1.4272013674       -3.5659810034        1.1151211538
 H          2.6792729438       -2.3424363917        1.1272547722
 H          2.0609625667       -2.9789735023       -0.4191020150
 H         -0.4676802179       -0.7021513095        2.2331120386
 H          1.1867104986       -1.1150618948        2.6782852111
 H         -0.0318658590       -2.3876425365        2.5076256410
 H          0.0231879354       -4.0980048225       -0.4868675088
 H         -2.0919504637       -4.7288305940       -1.5116654594
 H         -3.9021991241       -3.0582762024       -1.7545050006
 H         -3.5388656363       -0.7468761093       -1.0182755055
 H         -3.0497805313        0.4500048081        2.0132323643
 H         -4.9947955095        1.9701468724        2.0770195586
 H         -5.4484597348        3.4723451354        0.1721496300
 H         -3.9622894221        3.4468291791       -1.7970765660
 H         -2.0196351580        1.9230544701       -1.8586801808
 H         -0.6383696558        2.7374486586        0.2579612528
 H          1.6370523360        3.6458340175        0.2083721907
 H          3.9669715285        3.3511595044       -0.2140129629
 H          5.5731798644       -0.5373286597       -0.9685599054
 H          3.3985417785       -1.5143035141       -0.6741765667
