  79
 
 C          5.9758144449        4.3415656609       -0.7487287255
 C          4.9392005423        3.6195513388       -1.3195887904
 C          4.8736354619        2.2483362489       -1.1664115733
 C          5.8501587753        1.5771559878       -0.4278360633
 N          5.7893609681        0.1880753434       -0.2683545735
 C          6.9692830131       -0.5652138419       -0.2678625208
 C          8.0220806132       -0.2300532431       -1.1208901115
 C          9.1862546195       -0.9735183560       -1.1119356068
 C          9.3180688752       -2.0610144522       -0.2623944254
 C          8.2739971755       -2.3997925711        0.5842955135
 C          7.1075974572       -1.6597158624        0.5874232014
 C          4.5550967610       -0.4436441652       -0.1191452947
 C          3.5173546940        0.1793376621        0.5810140203
 C          2.2923114586       -0.4352665890        0.7068056754
 C          2.0534219704       -1.6956881537        0.1510976031
 C          0.7384453844       -2.3293095884        0.2734289295
 C          0.6244338485       -3.7231465880        0.4425356734
 C         -0.6368462161       -4.3103984645        0.5099917943
 C         -1.7732552936       -3.5491632100        0.4384419853
 C         -1.6927813664       -2.1277111356        0.3114299140
 C         -2.8985789566       -1.4087162923        0.2404660312
 N         -4.0777169591       -2.0122435673       -0.0118637623
 C         -4.9828523309       -1.0558893539       -0.1357502043
 C         -6.3634192445       -1.2062303754       -0.4626029364
 C         -6.8955390549       -2.4645114465       -0.7479284377
 C         -8.2248352687       -2.6013973987       -1.0969250362
 C         -9.0229488428       -1.4688333928       -1.1684687715
 C         -8.5065799136       -0.2179292852       -0.8825422359
 C         -7.1663741376       -0.0414032947       -0.5127782340
 C         -6.6013991096        1.2531906551       -0.1745260904
 C         -7.3883477079        2.4030264328       -0.1251505574
 C         -6.8792716713        3.6378338356        0.2259708369
 C         -5.5287331125        3.7624179563        0.5682986427
 C         -4.7130976143        2.6670851188        0.5302714558
 C         -5.2001384935        1.3897562057        0.1464560491
 C         -4.4094245974        0.2391412372        0.0943930459
 N         -3.0715978978       -0.0031454310        0.3278802401
 C         -2.0782027795        0.9082362090        0.7123455476
 C         -1.4674087988        0.7832130372        1.9612454859
 C         -0.4708820706        1.6655311178        2.3317905858
 C         -0.0704843778        2.6744733211        1.4677607543
 C         -0.6749108879        2.7991262566        0.2250965963
 C         -1.6741390049        1.9246409218       -0.1560761537
 C         -0.4036842592       -1.5562311119        0.2118188758
 C          3.1015726697       -2.3207817595       -0.5296685753
 C          4.3275181552       -1.7085398392       -0.6692535776
 C          6.8900563483        2.3092834397        0.1479585169
 C          6.9496897541        3.6794435642       -0.0173403457
 H          6.0248719652        5.4126655478       -0.8738762737
 H          4.1800994275        4.1264340995       -1.8969757359
 H          4.0731452472        1.6862658112       -1.6245368072
 H          7.9152813623        0.6085325056       -1.7931155531
 H          9.9929472609       -0.7071155222       -1.7788729298
 H         10.2288084830       -2.6404847560       -0.2597344168
 H          8.3717838673       -3.2416143479        1.2537932113
 H          6.2994815797       -1.9161067607        1.2566575921
 H          3.6876178067        1.1442202569        1.0352393105
 H          1.5094185596        0.0545153000        1.2661018642
 H          1.5111502104       -4.3308157298        0.5320039984
 H         -0.7162462214       -5.3825825463        0.6233022166
 H         -2.7545710175       -3.9926047052        0.4884309520
 H         -6.2358446473       -3.3169502608       -0.6918803137
 H         -8.6357069061       -3.5752701605       -1.3171545813
 H        -10.0623323291       -1.5601427458       -1.4501977558
 H         -9.1681421331        0.6303297442       -0.9564090885
 H         -8.4397300814        2.3415402071       -0.3575815029
 H         -7.5259754813        4.5020601628        0.2495689029
 H         -5.1337596193        4.7222479421        0.8682791128
 H         -3.6790155710        2.7655235693        0.8161998997
 H         -1.7819488033       -0.0085772134        2.6255557929
 H         -0.0064628194        1.5672582039        3.3022833955
 H          0.7112819124        3.3589611462        1.7599371612
 H         -0.3623139235        3.5794364974       -0.4529477939
 H         -2.1467879547        2.0110649765       -1.1241344776
 H         -0.3051059931       -0.5021671494        0.0116785772
 H          2.9379304183       -3.2842571713       -0.9885471605
 H          5.1156803994       -2.1965334520       -1.2236535737
 H          7.6421195859        1.7971854533        0.7298685384
 H          7.7573160047        4.2352065541        0.4357386542
