  171
 
 C          9.5623290996       -4.6909156008        0.8722451952
 C          8.1979939219       -5.2849962262        1.2328648128
 C          8.1097540579       -5.3773175016        2.7628372057
 C          8.1136892020       -6.6913515016        0.6226734335
 C          7.0403416023       -4.4468360776        0.7106360326
 C          5.7294860363       -4.8616265952        0.9773253583
 C          4.6189042031       -4.1688543322        0.5392067871
 C          4.8191288274       -3.0162513990       -0.2046950903
 C          6.1285082846       -2.5598021437       -0.4552125053
 C          7.2282052780       -3.2771939491       -0.0077759070
 C          5.9986053803       -1.3124165106       -1.1547857214
 C          6.9311873884       -0.4134989302       -1.6492081302
 C          6.5035987353        0.7345243959       -2.2953859702
 C          7.4758818987        1.7572241478       -2.8630211425
 C          7.0472239182        3.1674946406       -2.4354151981
 C          8.9092814348        1.5297584718       -2.3741532585
 C          7.4580932289        1.6521052642       -4.3948053869
 C          5.1272090216        0.9343499006       -2.4576110371
 C          4.1784215516        0.0558185064       -1.9746458356
 C          4.6176308369       -1.0684243774       -1.2930875013
 N          3.9086417671       -2.1141142383       -0.7263835400
 C          2.5224900874       -2.2465705612       -0.6854147900
 C          1.9312654703       -3.4789783469       -0.9688615888
 C          0.5617148949       -3.6335565393       -0.8883415737
 C         -0.2388653503       -2.5491870153       -0.5515111516
 N         -1.6490688796       -2.7004967043       -0.4274699441
 C         -2.4367425018       -2.6964047891       -1.5647311559
 C         -1.8484685657       -2.5639837695       -2.8266346226
 C         -2.6209792587       -2.5649995455       -3.9687588411
 C         -3.9973212802       -2.6933056805       -3.8803226063
 C         -4.5873506776       -2.8096160236       -2.6357229876
 C         -3.8276632831       -2.8120365150       -1.4757142634
 C         -4.5329484216       -2.9034849744       -0.1428604220
 C         -5.5005825652       -4.0698630797       -0.1276435965
 C         -5.2147844126       -5.4144134986       -0.2067624976
 C         -6.2688407995       -6.3182113200       -0.1859019450
 C         -7.5797669146       -5.8770113763       -0.0906184416
 C         -7.8716970098       -4.5245717020       -0.0122615771
 C         -6.8246145508       -3.6183247911       -0.0304648747
 C         -6.8165371132       -2.1645378179        0.0414962564
 C         -7.8623126878       -1.2572165086        0.1156007703
 C         -7.5341992452        0.0892924749        0.1596999408
 C         -6.1947821451        0.5067985962        0.1588222483
 C         -5.1511334737       -0.3924273147        0.0755111329
 C         -5.4823477779       -1.7300720396        0.0052382919
 C         -6.1040776631        2.0250882057        0.1984656998
 C         -7.5645381446        2.4112820169        0.1785485895
 C         -8.1119527479        3.6756165460        0.1778565880
 C         -9.4950814579        3.7992692436        0.1740694678
 C        -10.3076789439        2.6756791490        0.1755422440
 C         -9.7613025224        1.4020092116        0.1775178537
 C         -8.3823759617        1.2716975227        0.1783663738
 C         -5.3411810490        2.4613529890       -1.0261102499
 C         -5.9726684864        2.4780472859       -2.2588690709
 C         -5.2603700508        2.6977120119       -3.4239618741
 C         -3.8859190964        2.8575800702       -3.3573126054
 C         -3.2408004157        2.8536574770       -2.1386369122
 C         -3.9598292121        2.6946238853       -0.9487702909
 N         -3.3282197984        2.7548024878        0.2821245417
 C         -1.9132651896        2.8421169646        0.3618452153
 C         -1.2256078150        3.9614507090       -0.1164894636
 C          0.1442216698        4.0025701805       -0.0715485006
 C          0.8831471604        2.9272607591        0.4665799596
 C          2.3022547885        2.9585887149        0.4577785167
 N          3.0248461972        1.9136022915        0.8759579968
 C          4.3342555172        1.9958586325        0.8601516723
 C          5.1324872680        0.8976971886        1.3574262213
 C          6.5280218287        0.9570674169        1.2958143676
 C          7.2919619422       -0.0722523027        1.8033773824
 C          6.6840808021       -1.1749244114        2.3832384428
 C          5.2996842181       -1.2450131178        2.4459471561
 C          4.5279673861       -0.2229144418        1.9382619626
 N          4.9867443308        3.1171632293        0.4217187237
 C          4.2352976444        4.1411165917        0.0428530095
 C          4.9384681747        5.4001555731       -0.3920864066
 C          3.9788554200        6.5832393476       -0.5274204034
 C          3.4472790865        7.0315702878        0.8308103841
 C          4.5970092813        7.3698380912        1.7738554715
 C          5.5208894427        6.1664970674        1.9323126274
 C          6.0752472788        5.7359813857        0.5782130654
 N          2.9336993311        4.1021309096        0.0230135211
 C          0.1722715672        1.8409254945        1.0169216784
 C         -1.1976884359        1.7972055558        0.9555242369
 C         -4.0586868876        2.7892987518        1.4579699129
 C         -3.4463399762        3.1803261469        2.6539537214
 C         -4.1624793660        3.2179735429        3.8309787322
 C         -5.5049026336        2.8738650704        3.8429605170
 C         -6.1233297116        2.5052628432        2.6619446125
 C         -5.4212120832        2.4670192940        1.4678217034
 C         -3.5742570984       -2.9584441501        1.0184523099
 C         -4.0879408591       -3.1059114511        2.2980977269
 C         -3.2594380851       -3.1452578764        3.4038275826
 C         -1.8896789469       -3.0383396364        3.2271965568
 C         -1.3601241431       -2.8918957578        1.9621887446
 C         -2.1920698053       -2.8426425590        0.8386518125
 C          0.3418265291       -1.3102492505       -0.3128748686
 C          1.7128715980       -1.1578829316       -0.3634904850
 H          9.6836812494       -3.7000837279        1.3038230372
 H          9.6887922213       -4.6282889207       -0.2060776849
 H         10.3514741197       -5.3282152275        1.2667064184
 H          7.1853019764       -5.8508848441        3.0810084240
 H          8.9419106694       -5.9605634864        3.1519661085
 H          8.1513505487       -4.3832272432        3.2030937580
 H          8.9448947816       -7.3020226575        0.9693729595
 H          7.1879993299       -7.1885059515        0.8989996336
 H          8.1576297411       -6.6322469086       -0.4629396421
 H          5.5652718160       -5.7583298306        1.5556285869
 H          3.6279649140       -4.5134865681        0.7944728728
 H          8.2123384824       -2.8950969938       -0.2202459752
 H          7.9772055791       -0.6319988356       -1.5160736836
 H          7.8289656870        3.8876974382       -2.6692340055
 H          6.8546397169        3.1913453840       -1.3652882650
 H          6.1430025625        3.4772596786       -2.9527998262
 H          9.3057252501        0.5844107925       -2.7366584455
 H          9.5528564826        2.3233802166       -2.7491052046
 H          8.9511487506        1.5408965000       -1.2875145831
 H          7.7814749101        0.6617845582       -4.7091600900
 H          8.1276452017        2.3905087711       -4.8314829450
 H          6.4569223808        1.8210607398       -4.7837371737
 H          4.7769692605        1.8091544022       -2.9834446862
 H          3.1288893464        0.2476657151       -2.1383443558
 H          2.5518141547       -4.3117050584       -1.2619709403
 H          0.1060285524       -4.5911597763       -1.0930593956
 H         -0.7775938322       -2.4555233930       -2.9045813128
 H         -2.1444391013       -2.4630291776       -4.9322380705
 H         -4.6058531631       -2.6957309879       -4.7711946861
 H         -5.6609642114       -2.8985078731       -2.5555260243
 H         -4.1932498041       -5.7580790382       -0.2815417665
 H         -6.0653131797       -7.3772233713       -0.2449073513
 H         -8.3840321432       -6.5981180151       -0.0769806360
 H         -8.8945956650       -4.1863505850        0.0623726807
 H         -8.8907355547       -1.5850182621        0.1250780096
 H         -4.1209449132       -0.0683655529        0.0498411583
 H         -7.4782373457        4.5504942980        0.1792133686
 H         -9.9429570310        4.7819653572        0.1708120023
 H        -11.3812544256        2.7957944920        0.1743425713
 H        -10.3989800654        0.5305395390        0.1781173404
 H         -7.0371529455        2.2999788451       -2.3027889347
 H         -5.7688080515        2.7139220353       -4.3754380570
 H         -3.3094508210        2.9858225653       -4.2611334385
 H         -2.1690974269        2.9660557721       -2.1046442080
 H         -1.7874639794        4.7935237507       -0.5169010295
 H          0.6848457111        4.8585064301       -0.4446686970
 H          6.9898671045        1.8234466955        0.8486801131
 H          8.3702118980       -0.0169598342        1.7529720569
 H          7.2828431065       -1.9783758104        2.7849815005
 H          4.8270387745       -2.1063039979        2.8960763279
 H          3.4509870308       -0.2642754755        1.9955246554
 H          5.3744121043        5.1828158393       -1.3745503160
 H          4.5148610849        7.4113903195       -0.9979940971
 H          3.1468485650        6.3020132888       -1.1747404695
 H          2.8006624338        7.9026070091        0.7014416639
 H          2.8462881078        6.2287761724        1.2610909639
 H          4.2037816290        7.6690819980        2.7479077160
 H          5.1655761953        8.2115614104        1.3694222610
 H          4.9646294003        5.3361362611        2.3734116025
 H          6.3448420647        6.4122768544        2.6061577242
 H          6.7140604064        4.8601303731        0.6997729968
 H          6.6750160115        6.5452121837        0.1549005961
 H          0.7310225732        1.0503506631        1.4925333888
 H         -1.7430672481        0.9607047954        1.3738805072
 H         -2.4049873045        3.4623189012        2.6483045859
 H         -3.6706080489        3.5212740296        4.7428848544
 H         -6.0671892252        2.8959656503        4.7636121746
 H         -7.1701138983        2.2395130361        2.6636630292
 H         -5.1580469520       -3.1901570188        2.4211352435
 H         -3.6775245544       -3.2593280784        4.3918458453
 H         -1.2270757826       -3.0708978505        4.0790488648
 H         -0.2910866031       -2.8161567900        1.8371200711
 H         -0.2879250564       -0.4685545068       -0.0718269089
 H          2.1591078110       -0.2032413288       -0.1297597074
