  80
 
 C         -3.7791485709        9.1050894213       -0.9075566932
 O         -2.7089263244        8.5601400362       -0.1744662033
 C         -2.5089340526        7.2168666326       -0.2105841010
 C         -3.2827542406        6.3096689589       -0.9284946525
 C         -2.9849190574        4.9608387159       -0.8844621688
 C         -1.9113303792        4.4749181659       -0.1415133899
 C         -1.6022879527        3.0434134955       -0.1107704411
 C         -0.2672417940        2.6083968907       -0.0962092248
 C          0.0694481191        1.2720839124       -0.0682768668
 C         -0.9602041519        0.3397125434       -0.0552358890
 C         -2.3135813570        0.7558287463       -0.0585265903
 C         -2.6303043369        2.1006945239       -0.0925920983
 C         -3.1066895547       -0.4446929786       -0.0348434170
 C         -4.4691363584       -0.6751757780       -0.0343565131
 C         -4.9402469062       -1.9875807204       -0.0377926784
 C         -6.3789080721       -2.2591559119        0.0018921708
 C         -7.2876352847       -1.4498729794       -0.6857089296
 C         -8.6385681118       -1.7021873074       -0.6370590037
 C         -9.1364096840       -2.7712113980        0.1133259546
 O        -10.4861872748       -2.9261822053        0.1027091915
 C        -11.0514390117       -3.9837938842        0.8389317791
 C         -8.2414670300       -3.5833327579        0.8036982621
 C         -6.8849472828       -3.3272497436        0.7391896075
 C         -4.0198776741       -3.0464145771       -0.0865078178
 C         -2.6570668159       -2.8371977131       -0.0934695631
 C         -2.1920402302       -1.5282392624       -0.0291566592
 N         -0.9027905015       -1.0383235569       -0.0168016400
 C          0.2690774497       -1.7804645813        0.0991598441
 C          0.3463843005       -2.9301234440        0.9053125202
 C          1.5435581715       -3.5878464371        0.9951231550
 C          2.6909375411       -3.0917247796        0.3224300811
 C          3.9429219748       -3.8002480117        0.3992342581
 O          3.9589442930       -5.0147962899        0.7355734315
 C          5.1972186467       -3.0979997439        0.1196371590
 C          6.2931014308       -3.8513515700       -0.3429122268
 C          7.5121837575       -3.2634639677       -0.5865111239
 C          7.6558579669       -1.9031213536       -0.3489073733
 S          9.1138525012       -0.9630568817       -0.5763406661
 C          8.3063276681        0.4782897464        0.0032822928
 C          8.8775020496        1.7343308190        0.1226108308
 C          8.0963353445        2.7703300210        0.5985856895
 C          6.7671204648        2.5552667641        0.9478419558
 C          6.1997449863        1.3021488315        0.8285947370
 C          6.9664614561        0.2427902007        0.3549475958
 C          6.5888701724       -1.1338757862        0.1507814540
 C          5.3659835568       -1.7395481166        0.3927001127
 C          2.4924374000       -1.9326817724       -0.4649837907
 N          1.3414577888       -1.3317031012       -0.5620158712
 C         -1.1391939657        5.3963906043        0.5716985711
 C         -1.4332780377        6.7393406086        0.5435926422
 H         -3.6694350386        8.9155233178       -1.9801797262
 H         -3.7437127442       10.1782302372       -0.7270850781
 H         -4.7420544261        8.7127573928       -0.5649776115
 H         -4.1156798397        6.6424136471       -1.5279384697
 H         -3.5842701589        4.2754397735       -1.4653405361
 H          0.5196776868        3.3462395012       -0.1330136235
 H          1.0991471924        0.9535710191       -0.0739695580
 H         -3.6620916273        2.4171915659       -0.0778538660
 H         -5.1599931876        0.1534367500       -0.0063492044
 H         -6.9235477001       -0.6301473143       -1.2866272745
 H         -9.3415197284       -1.0856730313       -1.1748365851
 H        -10.7010218146       -4.9565134536        0.4792761593
 H        -12.1265258434       -3.9093605788        0.6836686023
 H        -10.8336868386       -3.8907019814        1.9077958000
 H         -8.5893377125       -4.4140425439        1.3974955793
 H         -6.2083396586       -3.9561616135        1.2986430629
 H         -4.3934319804       -4.0570499122       -0.1517776612
 H         -1.9785128514       -3.6717491217       -0.1744788788
 H         -0.5111966329       -3.2508289682        1.4756115292
 H          1.6428072593       -4.4736665351        1.6024406659
 H          6.1503256945       -4.9076030774       -0.5107262410
 H          8.3450011504       -3.8438797738       -0.9524601242
 H          9.9092252887        1.8923982517       -0.1506953083
 H          8.5235390865        3.7566863814        0.6997748615
 H          6.1739976333        3.3788563690        1.3166244646
 H          5.1677813060        1.1383718329        1.1006467810
 H          4.5638340427       -1.1630221770        0.8270754492
 H          3.2868472871       -1.5262370358       -1.0747454567
 H         -0.3157376827        5.0475874871        1.1763631878
 H         -0.8456449408        7.4513711165        1.1013184194
