  64
 
 C          7.3606211217       -3.0381461036       -1.8564113313
 C          6.0863900706       -3.4006317971       -1.4228770511
 C          5.2605863900       -2.5008114757       -0.7768619824
 C          5.7349376060       -1.2113030255       -0.5774857044
 C          7.0353878100       -0.8408559752       -0.9943146793
 C          7.8474428621       -1.7642866969       -1.6408304278
 C          7.2149176565        0.5278785090       -0.5993337066
 C          8.2575716518        1.4355092622       -0.7385307537
 C          8.0920515198        2.7151711387       -0.2472211619
 C          6.8999665670        3.0987499217        0.3650139686
 C          5.8485632288        2.2149172346        0.5143656015
 C          6.0160481994        0.9203794275        0.0412364689
 N          5.1317326770       -0.1386243454        0.0459569118
 C          3.8364791754       -0.1209675932        0.5911771061
 C          3.6307174003        0.3027691577        1.9016307275
 C          2.3568410012        0.3463151426        2.4258249176
 C          1.2506111095       -0.0428335768        1.6634353181
 N          0.0000068647        0.0000066712        2.2508345277
 C         -1.2506028607        0.0428560571        1.6634490708
 C         -2.3568330745       -0.3462323613        2.4258694894
 C         -3.6307140439       -0.3026864242        1.9016867082
 C         -3.8364812537        0.1210018876        0.5912183961
 N         -5.1317392657        0.1386434187        0.0460054653
 C         -5.7349476031        1.2112982794       -0.5774746170
 C         -5.2606069257        2.5008043880       -0.7768865099
 C         -6.0864063880        3.4005902856       -1.4229550893
 C         -7.3606114924        3.0380649611       -1.8565299153
 C         -7.8474211308        1.7642063785       -1.6409195354
 C         -7.0353783318        0.8408158240       -0.9943325800
 C         -7.2149320948       -0.5278804447       -0.5992318657
 C         -8.2575984726       -1.4355081188       -0.7383579705
 C         -8.0920674871       -2.7151567435       -0.2470165876
 C         -6.8999601213       -3.0987258908        0.3651819708
 C         -5.8485521904       -2.2148893420        0.5144829299
 C         -6.0160448652       -0.9203681281        0.0413130412
 C         -2.7440268495        0.5363390211       -0.1640520780
 C         -1.4703565324        0.5148318314        0.3676632625
 C          1.4703590345       -0.5148548460        0.3676654632
 C          2.7440227442       -0.5363498493       -0.1640666526
 H          7.9752370784       -3.7701657413       -2.3599846736
 H          5.7382380574       -4.4093214371       -1.5927652650
 H          4.2817870161       -2.7964756566       -0.4305244418
 H          8.8405884025       -1.4879395526       -1.9630523447
 H          9.1764779558        1.1426292149       -1.2247160181
 H          8.8919316289        3.4350476234       -0.3431667901
 H          6.7949455382        4.1111261087        0.7277624316
 H          4.9233381147        2.5260510919        0.9756292218
 H          4.4763183616        0.5917138725        2.5077074492
 H          2.2086035419        0.6779482506        3.4438293928
 H          0.0000129866        0.0000265509        3.2613804721
 H         -2.2085910424       -0.6778244047        3.4438868548
 H         -4.4763137228       -0.5915968772        2.5077826523
 H         -4.2817816375        2.7964669091       -0.4306187059
 H         -5.7382342257        4.4092591153       -1.5929321134
 H         -7.9752477428        3.7700777205       -2.3600912392
 H         -8.8406015443        1.4878711256       -1.9630462652
 H         -9.1764615277       -1.1426852066       -1.2246585072
 H         -8.8919170850       -3.4350625689       -0.3429989360
 H         -6.7949480192       -4.1110764307        0.7280034280
 H         -4.9233504704       -2.5259834888        0.9758197579
 H         -2.8965529782        0.8794096480       -1.1764688064
 H         -0.6455582578        0.8855931944       -0.2193290983
 H          0.6455614461       -0.8856563426       -0.2193023991
 H          2.8965454187       -0.8794677787       -1.1764672023
