  48
 
 C          8.4514253323        0.8279283790        1.1516001636
 C          8.3853344673       -0.0359296207        0.0617342190
 C          7.1688733087       -0.4284465745       -0.4455411078
 C          5.9757759703        0.0426830317        0.1357976642
 C          4.7223056844       -0.3658998799       -0.3855498948
 N          4.5134284225       -1.1873217176       -1.4037090480
 N          3.2226913565       -1.3163531334       -1.5800756821
 C          2.6010964934       -0.5649639523       -0.6591570945
 C          1.2255811752       -0.4083559234       -0.4935186893
 C          0.3139003441       -1.1014537383       -1.3449413528
 C         -1.0308450153       -0.9720349588       -1.1763071661
 C         -1.5506211611       -0.1203519183       -0.1754389747
 N         -2.9383086988        0.0209111582       -0.0148950444
 C         -3.7333662255       -1.0830884562        0.2569481685
 C         -3.1976814164       -2.3596555870        0.4534291172
 C         -4.0227096101       -3.4347825229        0.7158333037
 C         -5.3984499656       -3.2662720751        0.8047648197
 C         -5.9466814409       -2.0049045256        0.6594917884
 C         -5.1258302693       -0.9172248357        0.3972719297
 O         -5.7195425865        0.3044072240        0.3122278899
 C         -4.9305536608        1.3848182051        0.0636028062
 C         -5.5555016932        2.6206135156       -0.0250880998
 C         -4.8152297487        3.7507163410       -0.3210833139
 C         -3.4510933783        3.6393703455       -0.5569042730
 C         -2.8196192098        2.4151662849       -0.4685366011
 C         -3.5389261359        1.2663989732       -0.1245103422
 C         -0.6608364516        0.5861570173        0.6613791376
 C          0.6865060703        0.4379407333        0.5206854903
 O          3.5304209725        0.0788361601        0.1419097884
 C          6.0529095865        0.9164534783        1.2368933668
 C          7.2789484381        1.2980626992        1.7325962267
 H          9.4099132098        1.1325551942        1.5442267570
 H          9.2973724175       -0.4005650165       -0.3886841218
 H          7.0968880245       -1.0971494268       -1.2893231628
 H          0.7280443092       -1.7197080616       -2.1249467324
 H         -1.7169877343       -1.4836776534       -1.8354945897
 H         -2.1296936298       -2.4965847336        0.4080055653
 H         -3.5869056396       -4.4108379602        0.8598560640
 H         -6.0392411919       -4.1095727787        1.0062588531
 H         -7.0069236675       -1.8334758465        0.7532465257
 H         -6.6209681988        2.6665413696        0.1329015927
 H         -5.3034269595        4.7097316130       -0.3868969320
 H         -2.8748013182        4.5122222166       -0.8205700393
 H         -1.7653067388        2.3342941234       -0.6766560566
 H         -1.0627977391        1.2112905518        1.4457239741
 H          1.3705351334        0.9493663979        1.1807734075
 H          5.1378592383        1.2779780328        1.6834740258
 H          7.3298996950        1.9681681408        2.5791932838
