66

C      0.600513   -0.006625    0.015539
C     -0.600869   -0.006729    0.015989
C     -2.030893   -0.005806    0.013790
C     -2.731924   -0.634773    1.045430
C     -4.129000   -0.633749    1.043098
C     -4.834833   -0.004069    0.007909
N     -6.261791   -0.003059    0.004387
C     -7.005370    1.087217    0.563746
C     -6.393202    2.205684    1.156219
C     -7.158003    3.248351    1.690704
C     -8.548155    3.191604    1.644386
C     -9.174746    2.091186    1.064966
C     -8.409067    1.049386    0.531232
O     -9.120456    0.005459   -0.014696
C     -8.407935   -1.043642   -0.549362
C     -9.172486   -2.081165   -1.092749
C     -8.544672   -3.186058   -1.662403
C     -7.154385   -3.251642   -1.689258
C     -6.390712   -2.213110   -1.145442
C     -7.004177   -1.089974   -0.562947
C     -4.123776    0.624110   -1.024776
C     -2.726866    0.623344   -1.021366
C      2.030519   -0.005378    0.012508
C      2.730768    0.649299    1.028693
C      4.127774    0.651726    1.025025
C      4.834592   -0.000828    0.004536
N      6.261646    0.001792    0.000133
C      7.008622   -1.084597    0.562737
C      6.400000   -2.204319    1.156712
C      7.168018   -3.242789    1.694648
C      8.557994   -3.180185    1.651067
C      9.181154   -2.078069    1.071125
C      8.412228   -1.040644    0.533628
O      9.120505    0.005946   -0.011299
C      8.404854    1.050538   -0.550388
C      9.166416    2.090146   -1.094109
C      8.535441    3.190365   -1.669112
C      7.144991    3.248915   -1.701510
C      6.384331    2.208336   -1.157323
C      7.000941    1.090432   -0.568233
C      4.124251   -0.656482   -1.011318
C      2.727264   -0.658548   -1.007048
H     -2.198429   -1.127976    1.854293
H     -4.672702   -1.122509    1.847979
H     -5.310948    2.284119    1.213648
H     -6.663242    4.104034    2.143818
H     -9.142380    4.001451    2.059609
H    -10.259431    2.040260    1.027650
H    -10.257250   -2.023289   -1.070723
H     -9.137975   -3.992412   -2.085409
H     -6.658590   -4.111008   -2.134400
H     -5.308261   -2.298524   -1.187722
H     -4.663475    1.112886   -1.832455
H     -2.189415    1.115218   -1.828504
H      2.196556    1.159372    1.826910
H      4.670732    1.160709    1.817878
H      5.317999   -2.286942    1.213135
H      6.675840   -4.099698    2.148421
H      9.154725   -3.986585    2.069228
H     10.265702   -2.022242    1.036559
H     10.251355    2.037440   -1.068342
H      9.126462    3.998345   -2.092260
H      6.646730    4.104181   -2.151540
H      5.301680    2.287804   -1.205037
H      4.664353   -1.164623   -1.806406
H      2.190458   -1.171611   -1.801199
