66
 xtb: 6.7.1 (edcfbbe)
C            0.60346735466903        0.00386143656134       -0.00390431674700
C           -0.60499335812085        0.00348676015118       -0.00439653179312
C           -2.01554770771820        0.00267117866499       -0.00403746082763
C           -2.72022269544477       -0.29777518976241        1.16497006211832
C           -4.09961356640852       -0.30385015012459        1.16241265792235
C           -4.79930667712489        0.00030928921599       -0.00273312364645
N           -6.21446794754771       -0.00122621472892       -0.00129014841947
C           -6.92287749520384        0.93179972378492        0.75769228538401
C           -6.28868693773552        1.92631927614171        1.49288639506815
C           -7.02223973416781        2.83872464450474        2.23699375125283
C           -8.40096368255961        2.77968105595359        2.25213318413595
C           -9.05115761022848        1.80982201112770        1.50129812660179
C           -8.32420325777447        0.89987677387654        0.75682039156806
O           -9.04109051654721       -0.01442733272382        0.01770311773360
C           -8.32548000521586       -0.91695853742909       -0.73716128160910
C           -9.05401416289862       -1.82916799521325       -1.47732109857246
C           -8.40526684616987       -2.78940665785920       -2.24188202952203
C           -7.02601595187461       -2.83636951480537       -2.24504488139740
C           -6.29087565227086       -1.92162412109598       -1.50533683593408
C           -6.92397968232656       -0.93685508296775       -0.75598736434815
C           -4.10129275124654        0.30612032060834       -1.16842108387136
C           -2.72181558215467        0.30228202152626       -1.17224859847416
C            2.01411529573483        0.00391229468179       -0.00319129918076
C            2.71943797014328        0.12724728946206        1.19730492660731
C            4.09883154867933        0.13295245113687        1.19577969736169
C            4.79913906274778        0.00317340810450       -0.00141583897300
N            6.21389375396512        0.00249290584201       -0.00048287304318
C            6.92251607020871       -1.02401818721918        0.62676350676663
C            6.28857983975442       -2.10317795037395        1.23136911607926
C            7.02208348673387       -3.10634007099401        1.84761434793586
C            8.40108953549819       -3.05438843708303        1.86218940866902
C            9.05101840735724       -1.99846029452347        1.23793956037461
C            8.32398536630993       -0.99759250392578        0.62108403243709
O            9.04117246357794       -0.00011373521826       -0.00054368400251
C            8.32571342818066        0.99896846600945       -0.62204649471510
C            9.05444024033871        1.99865924136647       -1.23881760567170
C            8.40628940385486        3.05578167771767       -1.86288108373775
C            7.02737341637412        3.11013507915981       -1.84818292835242
C            6.29217388758371        2.10813928037198       -1.23205716423291
C            6.92429713373079        1.02779322941719       -0.62768507989557
C            4.10028334508724       -0.12605622646329       -1.19951780272168
C            2.72089407321218       -0.11962302232864       -1.20280718107655
H           -2.17666948311512       -0.52011836090301        2.07164736077553
H           -4.64713235074973       -0.52881364740449        2.06657908376979
H           -5.21158968398047        2.00798806701134        1.45614320068636
H           -6.50145190795282        3.63246358095027        2.75523575463703
H           -8.97690318237094        3.52226075337718        2.78280496291410
H          -10.12778163467474        1.76868820689566        1.44864199361930
H          -10.13038203573662       -1.79226132003896       -1.41650312417138
H           -8.98178552677023       -3.53454161271777       -2.76743348302984
H           -6.50547239208102       -3.62810930104541       -2.76590248676584
H           -5.21314614728778       -1.99922204657367       -1.47522259483378
H           -4.64971134523911        0.52998591735846       -2.07152455728751
H           -2.17928063370881        0.52386678966532       -2.07897842368696
H            2.17639294205966        0.19988822108428        2.12806598561076
H            4.64519220854447        0.21027371562169        2.12444087882422
H            5.21215952812866       -2.17986102471938        1.18509265499384
H            6.50217925083062       -3.95940366154593        2.25987860592590
H            8.97830209499373       -3.85860836025604        2.29164024585516
H           10.12808168910153       -1.95066634841697        1.18869216576754
H           10.13049499882536        1.95080568317504       -1.18980414256650
H            8.98303463233182        3.86020414725938       -2.29263105561676
H            6.50705687061159        3.96406727717039       -2.26081850391372
H            5.21483962570844        2.18593194065178       -1.18619997829516
H            4.64755908935302       -0.20438138801452       -2.12754846870953
H            2.17876068210907       -0.19355624236013       -2.13398411266928
