  114
 
 C         -1.1457631942       -0.7633446229       -9.1097862284
 C         -0.5944168866        0.3620197782       -9.7511381388
 N         -0.1049542713        1.3545844005       -9.0160646782
 C         -0.0279771484        1.3023436429       -7.7301650959
 C         -0.4491732956        0.1638320231       -6.9572433158
 C         -0.3948706557        0.1570174226       -5.5532808355
 C         -1.1411574082       -0.7832887621       -4.7675780147
 C         -1.0178330096       -0.8398447144       -3.4139144013
 C         -0.1741675442        0.0383105686       -2.6974187233
 Si        -0.0535311070        0.0189386280       -0.8323300485
 C          1.7472321479        0.3060522135       -0.3088673035
 C          2.0768844622        1.1109537339        0.7763255848
 C          3.3910158829        1.3095095388        1.1524195279
 C          4.4165506136        0.6914885201        0.4429478436
 N          5.7530271079        0.8844007979        0.8187345276
 C          6.2658385053        0.7276032933        2.0902828456
 C          5.6324115433        0.3146352722        3.2541207607
 C          6.3948574663        0.2141710421        4.4021965692
 C          7.7567087650        0.5070455258        4.3992184791
 C          8.3974258624        0.8957602655        3.2389103110
 C          7.6526938665        1.0042389020        2.0726903141
 C          7.9819600023        1.3507244700        0.7177561864
 C          9.1588671031        1.7312305948        0.0879124906
 C          9.1221277359        2.0233954359       -1.2615878342
 C          7.9292679163        1.9544123064       -1.9777680476
 C          6.7450522403        1.5784676214       -1.3731333975
 C          6.7805489612        1.2601621732       -0.0226694150
 C          4.1042445829       -0.1169362917       -0.6466565929
 C          2.7855389242       -0.2965968163       -1.0135523699
 C         -0.6434332198       -1.6483279832       -0.1536695084
 C          0.2515412435       -2.6457668700        0.2177989088
 C         -0.1878417267       -3.8726382022        0.6751535924
 C         -1.5525063966       -4.1268300122        0.7777317774
 N         -2.0081207471       -5.3685907347        1.2415367858
 C         -2.9482663974       -6.1654887890        0.6205954553
 C         -3.6112649907       -5.9753140732       -0.5838357280
 C         -4.4959253203       -6.9542114693       -0.9941815220
 C         -4.7146031347       -8.1017713092       -0.2353408959
 C         -4.0393870545       -8.3080944936        0.9518302149
 C         -3.1456272648       -7.3386459917        1.3853096272
 C         -2.2792976929       -7.2316341803        2.5264554167
 C         -2.0413706098       -8.0459490903        3.6249774474
 C         -1.1349492472       -7.6233788465        4.5777143747
 C         -0.4815214216       -6.3995638884        4.4522229780
 C         -0.7017707278       -5.5715765446        3.3681302294
 C         -1.5931956467       -6.0018919440        2.3952263201
 C         -2.4620672719       -3.1364857218        0.4169656720
 C         -2.0045952021       -1.9188361009       -0.0454683995
 C         -1.1208503218        1.3694883961       -0.0294914302
 C         -1.4937710556        2.5056609120       -0.7406519174
 C         -2.2590731245        3.4984310571       -0.1612534772
 C         -2.6827789612        3.3667742815        1.1581690700
 N         -3.4616860086        4.3673659812        1.7555597181
 C         -3.2089709227        4.9650805702        2.9733488200
 C         -2.1460364122        4.7775697142        3.8459234916
 C         -2.1193622339        5.5343596643        5.0016892372
 C         -3.1174437455        6.4636578186        5.2857134727
 C         -4.1647259087        6.6721762499        4.4094741140
 C         -4.2133964865        5.9238855453        3.2415006850
 C         -5.1161332870        5.8912185709        2.1241870725
 C         -6.2841510722        6.5762728418        1.8193162191
 C         -6.9353349979        6.2802326544        0.6376743178
 C         -6.4434661221        5.3050730173       -0.2270208051
 C         -5.2832611383        4.6093868743        0.0546010233
 C         -4.6117089568        4.9193330062        1.2290600917
 C         -2.3281699537        2.2309674380        1.8809158451
 C         -1.5549793000        1.2525748367        1.2883364564
 C          0.5660510682        0.9714569920       -3.4629292909
 C          0.4519328355        1.0475504214       -4.8158822951
 C         -1.0464889879       -0.8752088016       -7.7555422892
 H         -1.5664831060       -1.5562798127       -9.7093671507
 H         -0.5217262451        0.4505803032      -10.8218689817
 H          0.2703481466        2.2142323591       -7.2336192719
 H         -1.8119942998       -1.4659310939       -5.2662748800
 H         -1.5851743560       -1.5742515099       -2.8583807620
 H          1.2886053711        1.6010451362        1.3295574893
 H          3.6333085961        1.9559785008        1.9833243909
 H          4.5812529028        0.0687042918        3.2620519253
 H          5.9249717158       -0.1021760991        5.3217804646
 H          8.3174121488        0.4186109059        5.3177772280
 H          9.4559854039        1.1073127173        3.2333451381
 H         10.0802473259        1.8002792185        0.6461696415
 H         10.0269952516        2.3190752215       -1.7711919702
 H          7.9289836977        2.2038996092       -3.0285074110
 H          5.8222133705        1.5450290889       -1.9322280588
 H          4.8979840882       -0.6101576850       -1.1885008617
 H          2.5519652887       -0.9197977209       -1.8649665977
 H          1.3129004983       -2.4582846958        0.1422575852
 H          0.5188807077       -4.6460625557        0.9381965086
 H         -3.4345837882       -5.0980047403       -1.1875152284
 H         -5.0269328668       -6.8284470885       -1.9261849893
 H         -5.4161901763       -8.8424136900       -0.5891312147
 H         -4.1969181632       -9.2050013927        1.5315768400
 H         -2.5595257045       -8.9870853191        3.7304319189
 H         -0.9334889061       -8.2431366621        5.4386706554
 H          0.2102890125       -6.0890827123        5.2212877157
 H         -0.2038701580       -4.6170369031        3.2882095318
 H         -3.5211858601       -3.3239182607        0.5176116674
 H         -2.7176765909       -1.1536212082       -0.3173392434
 H         -1.1729443746        2.6130097718       -1.7665447953
 H         -2.5202174232        4.3864647472       -0.7179685350
 H         -1.3587966136        4.0725635017        3.6253980044
 H         -1.3043610689        5.4051301705        5.6985385302
 H         -3.0622319545        7.0338103526        6.2010403811
 H         -4.9290914136        7.4041615077        4.6222768080
 H         -6.6740711628        7.3209606297        2.4966458443
 H         -7.8442204924        6.8034321773        0.3805089694
 H         -6.9828216178        5.0851215021       -1.1364610722
 H         -4.9191253000        3.8432161222       -0.6130458540
 H         -2.6757278947        2.1166431191        2.8974336727
 H         -1.2888815984        0.3721850192        1.8564992623
 H          1.2299796225        1.6493908935       -2.9429779293
 H          1.0320520197        1.7833899278       -5.3525952702
 H         -1.3680758423       -1.7847402242       -7.2731511427
