  85
 
 C         -6.9157998191       -5.0074271511        0.2573376323
 C         -6.2223596454       -3.6809010399        0.1824916812
 C         -6.7092807613       -2.6595175733       -0.6234811095
 C         -6.0604318693       -1.4441348833       -0.7108268615
 C         -4.8991093798       -1.2109214545        0.0259344280
 N         -4.2168778828        0.0040317729       -0.0503352152
 C         -4.8719717034        1.2158164707       -0.2736410183
 C         -6.1682265939        1.4425319481        0.1896863418
 C         -6.7866686227        2.6557317181       -0.0354759306
 C         -6.1383952790        3.6817056401       -0.7122372685
 C         -6.8051550723        5.0062195630       -0.9293650818
 C         -4.8424344909        3.4549311576       -1.1593483958
 C         -4.2155561145        2.2434938713       -0.9508887684
 C         -2.8151530167        0.0091015339        0.1073459736
 C         -2.0111749486       -0.7208627247       -0.7865748226
 C         -2.5576883005       -1.4289204991       -1.8873243772
 C         -1.7622000909       -2.1222777648       -2.7472955503
 C         -0.3667251002       -2.1480148883       -2.5617372988
 C          0.1993734065       -1.4608468034       -1.5327920088
 C         -0.5923016610       -0.7219535240       -0.6147455384
 C         -0.0114136636        0.0287792672        0.4165662362
 C          1.4587033587        0.0444887697        0.5751225710
 C          2.1902884027        1.1788008390        0.2360408400
 C          3.5659920514        1.1969731901        0.3768597757
 C          4.2242707339        0.0762880378        0.8587539325
 P          6.0200728908        0.0274449889        1.1700089849
 O          6.3594211251        0.0332296155        2.5986532659
 C          6.7422170377        1.4230809003        0.2525037322
 C          6.6158751358        1.5587564199       -1.1242742495
 C          7.2003817870        2.6370935240       -1.7618247299
 C          7.9119359005        3.5762950530       -1.0304547368
 C          8.0419290871        3.4385869939        0.3416042622
 C          7.4576059445        2.3605062120        0.9828076691
 C          6.6013702963       -1.4608304487        0.2944038659
 C          7.7038944982       -2.1091471985        0.8323612400
 C          8.2198950469       -3.2319730072        0.2109032365
 C          7.6326053477       -3.7064417208       -0.9506993902
 C          6.5283419005       -3.0625831867       -1.4865736970
 C          6.0110392865       -1.9391795594       -0.8675962302
 C          3.4995771113       -1.0544050993        1.2142393866
 C          2.1270073705       -1.0737737207        1.0689980346
 C         -0.8134166134        0.7667467389        1.2981760368
 C         -0.2503271486        1.5110411498        2.3679409745
 C         -1.0371736922        2.1870271877        3.2486390061
 C         -2.4389649614        2.1436602085        3.1241273702
 C         -3.0186136298        1.4430473079        2.1109992906
 C         -2.2353217943        0.7458774049        1.1560456045
 C         -4.4033331215       -2.2347887095        0.8334639280
 C         -5.0565270369       -3.4480162035        0.9025804019
 H         -7.9516549187       -4.9235119736       -0.0625243757
 H         -6.8908532896       -5.3991732810        1.2722586517
 H         -6.4172117683       -5.7288290425       -0.3913396719
 H         -7.6079549988       -2.8194874432       -1.2024091351
 H         -6.4451396216       -0.6722746261       -1.3615502389
 H         -6.6833556062        0.6674643138        0.7383878017
 H         -7.7911522364        2.8113984290        0.3320737144
 H         -6.4915512160        5.4471714171       -1.8731789717
 H         -7.8875564912        4.9009186889       -0.9313513561
 H         -6.5342431763        5.6974683795       -0.1300988432
 H         -4.3172973990        4.2380620349       -1.6875954113
 H         -3.2107775929        2.0825265315       -1.3137012180
 H         -3.6240918490       -1.4049344135       -2.0473078220
 H         -2.1963687046       -2.6514226913       -3.5826029163
 H          0.2497008071       -2.7064750154       -3.2509391707
 H          1.2712504103       -1.4628858734       -1.4008082452
 H          1.6717016832        2.0483896893       -0.1421724370
 H          4.1299477902        2.0808530328        0.1121931823
 H          6.0621234456        0.8231366365       -1.6895363090
 H          7.1031448729        2.7476266837       -2.8322089077
 H          8.3671317266        4.4164473488       -1.5342913429
 H          8.5982106511        4.1700766192        0.9092339603
 H          7.5432371153        2.2258437528        2.0515465044
 H          8.1344261163       -1.7246893695        1.7461241426
 H          9.0767406995       -3.7383433509        0.6305732236
 H          8.0320624810       -4.5837702211       -1.4381135323
 H          6.0682887431       -3.4402725191       -2.3883582722
 H          5.1405784807       -1.4436087202       -1.2749840028
 H          4.0287033486       -1.9134988596        1.6058659462
 H          1.5596680876       -1.9520435197        1.3420531852
 H          0.8238650305        1.5241264519        2.4770377808
 H         -0.5931284769        2.7485916305        4.0572341617
 H         -3.0521378655        2.6639425792        3.8449229518
 H         -4.0938366381        1.4037347919        2.0350017226
 H         -3.5035455507       -2.0688013686        1.4078435565
 H         -4.6581187953       -4.2281260466        1.5356192707
