  84
 
 C          7.8830041605        2.0184843660        1.4897158610
 C          7.3320065526        1.4609239834        0.1636333661
 C          8.1859771008        1.9534991543       -1.0200686874
 C          7.3938956402       -0.0533218054        0.2150591274
 C          8.6225365322       -0.6755761786        0.3986467036
 C          8.7444786988       -2.0483763362        0.5019158665
 C          7.6051445098       -2.8312193026        0.4501651342
 C          6.3732227946       -2.2390609622        0.2661861833
 C          6.2517032418       -0.8540892416        0.1146774249
 N          4.9947127470       -0.2860833590       -0.0816814061
 C          3.8711125245       -1.1289102962       -0.2038430867
 C          3.7523557833       -1.9870113438       -1.2990520667
 C          2.6546045669       -2.8100223019       -1.4148435114
 C          1.6550762875       -2.8039052614       -0.4355446943
 C          0.5021287881       -3.6990220630       -0.5833048322
 O          0.3305062126       -4.4384322868       -1.5372529916
 C         -0.4985765790       -3.7015602047        0.5730309572
 O         -0.3247067307       -4.4423098542        1.5255169043
 C         -1.6537587592       -2.8089124534        0.4275737504
 C         -1.7788111212       -1.9479395306       -0.6672204997
 C         -2.8745682615       -1.1191325816       -0.7751604468
 C         -3.8723059095       -1.1366012896        0.2018701632
 N         -4.9962313110       -0.2936229687        0.0830366145
 C         -4.8244074194        1.0863827606        0.1632449717
 C         -3.5586838172        1.6149907795        0.4359059243
 C         -3.3554109382        2.9770844087        0.5111978729
 C         -4.4190588701        3.8427233351        0.3299684882
 C         -5.6794895228        3.3221383312        0.1055936245
 C         -5.9124865286        1.9546088802        0.0282106778
 C         -7.3313566956        1.4558700824       -0.1642431449
 C         -7.8789367840        2.0140216384       -1.4914573067
 C         -8.1872395177        1.9494312266        1.0176952399
 C         -7.3948210450       -0.0583528435       -0.2153956945
 C         -8.6240178511       -0.6792528778       -0.3997630424
 C         -8.7475799400       -2.0520145840       -0.5016551901
 C         -7.6093374786       -2.8362743866       -0.4474952064
 C         -6.3768105270       -2.2454721091       -0.2631298927
 C         -6.2536722922       -0.8604582960       -0.1134554661
 C         -3.7502684064       -1.9953698875        1.2961422038
 C         -2.6512315185       -2.8171257245        1.4089284943
 C          1.7765439307       -1.9432220246        0.6598850611
 C          2.8709924007       -1.1130606897        0.7707847224
 C          4.8238633170        1.0942490322       -0.1590827150
 C          3.5580089892        1.6247036383       -0.4275011839
 C          3.3560019945        2.9871351882       -0.5001299440
 C          4.4211189292        3.8513722974       -0.3208954704
 C          5.6815578245        3.3290551525       -0.1007168241
 C          5.9131965574        1.9611755230       -0.0254515122
 H          7.2756262699        1.6644039037        2.3210461348
 H          8.9073847425        1.6953753407        1.6513496416
 H          7.8654359100        3.1046503256        1.4902800462
 H          9.2160234683        1.6239392959       -0.9177270869
 H          8.1804328332        3.0382147827       -1.0781790733
 H          7.7894778532        1.5573274363       -1.9535202807
 H          9.5155731999       -0.0734559723        0.4667047175
 H          9.7157726876       -2.4992978158        0.6384743799
 H          7.6694826700       -3.9038907907        0.5584186587
 H          5.4921339427       -2.8614168489        0.2505344077
 H          4.5256405047       -1.9945857860       -2.0526546748
 H          2.5417238647       -3.4718416868       -2.2607994106
 H         -1.0206389531       -1.9404383456       -1.4360688879
 H         -2.9759390914       -0.4559129251       -1.6211397081
 H         -2.7243313172        0.9514693531        0.6011831792
 H         -2.3662011414        3.3579146562        0.7182360304
 H         -4.2734191850        4.9112583553        0.3793521865
 H         -6.5060317205        4.0067358164       -0.0076368585
 H         -8.9032880143        1.6918894803       -1.6552763869
 H         -7.8603030606        3.1001763466       -1.4918118000
 H         -7.2701680079        1.6594847135       -2.3215749792
 H         -7.7933384840        1.5523773974        1.9518776072
 H         -9.2175565494        1.6214807472        0.9130385440
 H         -8.1801983980        3.0341154356        1.0761486112
 H         -9.5162037441       -0.0760739624       -0.4696072836
 H         -9.7192958231       -2.5018508202       -0.6387815701
 H         -7.6750298926       -3.9090256628       -0.5541357360
 H         -5.4965439311       -2.8689415507       -0.2456877700
 H         -4.5216873124       -2.0041063749        2.0516363586
 H         -2.5355289412       -3.4792279464        2.2542819888
 H          1.0166082671       -1.9370035752        1.4270039373
 H          2.9696584400       -0.4503969347        1.6175230837
 H          2.7223976109        0.9624843222       -0.5915536144
 H          2.3665668307        3.3693429860       -0.7035207233
 H          4.2765553768        4.9201328373       -0.3685074064
 H          6.5092268353        4.0125587331        0.0108542164
