92

C     -6.605564    5.089413   -1.642635
C     -6.668354    4.369894   -0.278118
C     -8.141688    3.967875   -0.040491
C     -6.283112    5.364280    0.838849
C     -5.689678    3.181815   -0.274796
C     -4.316862    3.398917   -0.462422
C     -3.383618    2.353759   -0.465792
C     -3.835484    1.038930   -0.254054
C     -5.195810    0.773401   -0.106766
C     -6.115123    1.851878   -0.105122
C     -5.354150   -0.639568    0.006649
C     -6.487231   -1.474474    0.171911
C     -6.361358   -2.869870    0.296135
C     -7.576038   -3.797645    0.477812
C     -8.933983   -3.059520    0.471954
C     -7.616558   -4.832134   -0.667996
C     -7.464725   -4.538748    1.827638
C     -5.064934   -3.403876    0.265564
C     -3.925886   -2.604662    0.100661
C     -4.087174   -1.216877   -0.059833
N     -3.161091   -0.183796   -0.220947
C     -1.747846   -0.350861   -0.330982
C     -0.882840    0.496017    0.368624
C      0.501938    0.326770    0.260976
C      1.051372   -0.683491   -0.545256
C      2.509269   -0.857324   -0.655097
C      3.109562   -2.105629   -0.427515
C      4.495443   -2.270071   -0.529490
C      5.320259   -1.185907   -0.848702
C      6.765938   -1.387751   -0.954919
N      7.312892   -2.312749   -1.720183
N      8.665693   -2.147245   -1.705067
C      8.962427   -1.165185   -0.875174
C     10.335053   -0.803267   -0.517985
C     10.761599   -0.756690    0.816879
C     12.080243   -0.416086    1.127590
C     12.987387   -0.133845    0.107804
C     12.581313   -0.200575   -1.223536
C     11.263311   -0.540535   -1.535067
N      7.778603   -0.627197   -0.368359
C      7.634000    0.457802    0.544520
C      6.656241    0.411160    1.548082
C      6.516851    1.476372    2.440552
C      7.348330    2.589455    2.338094
C      8.322072    2.641292    1.342989
C      8.467769    1.580240    0.446584
C      4.729079    0.056864   -1.103197
C      3.342602    0.218846   -0.999293
C      0.167055   -1.522473   -1.242686
C     -1.219132   -1.362631   -1.138039
H     -7.318114    5.921602   -1.683876
H     -5.613431    5.507146   -1.845849
H     -6.847358    4.402264   -2.462294
H     -8.273014    3.471833    0.928303
H     -8.796656    4.847504   -0.043845
H     -8.507639    3.292505   -0.822800
H     -6.987838    6.202981    0.881707
H     -5.286100    5.792395    0.687811
H     -6.286276    4.875398    1.820378
H     -3.938469    4.407156   -0.622534
H     -2.337190    2.575924   -0.649986
H     -7.164555    1.608590    0.023443
H     -7.458025   -0.991508    0.207635
H     -9.766312   -3.762794    0.595993
H     -9.002788   -2.333733    1.290637
H     -9.099610   -2.527120   -0.471963
H     -8.494651   -5.482919   -0.582154
H     -6.735578   -5.483232   -0.670733
H     -7.662767   -4.336658   -1.645090
H     -8.336000   -5.181838    1.998571
H     -6.578445   -5.180826    1.876033
H     -7.403728   -3.830563    2.662500
H     -4.910918   -4.475587    0.380567
H     -2.944502   -3.068204    0.118234
H     -1.263143    1.263318    1.038818
H      1.154754    0.983605    0.833007
H      2.499301   -2.966870   -0.161750
H      4.929132   -3.254134   -0.358388
H     10.075669   -0.992184    1.627574
H     12.401003   -0.379991    2.165801
H     14.014966    0.125299    0.350152
H     13.291755    0.002612   -2.020973
H     10.961135   -0.605188   -2.579086
H      6.012287   -0.454895    1.682744
H      5.761890    1.433281    3.222261
H      7.238253    3.416726    3.035121
H      8.967450    3.512725    1.260387
H      9.216773    1.672782   -0.336543
H      5.335614    0.911856   -1.393803
H      2.912852    1.196533   -1.209989
H      0.555708   -2.302011   -1.895959
H     -1.863497   -2.008076   -1.730407
