83

C      7.238208    3.686534    0.097155
C      5.869141    3.827342    0.305837
C      5.075832    2.701610    0.552208
C      5.638146    1.413818    0.598383
C      7.019681    1.294533    0.375384
C      7.814177    2.419233    0.130101
O      7.679771    0.087083    0.375531
C      6.934372   -1.049020    0.593441
C      7.645523   -2.253272    0.571729
C      6.983524   -3.458492    0.790875
C      5.613041   -3.457936    1.034589
C      4.903105   -2.252612    1.057096
C      5.550294   -1.024959    0.831415
N      4.863702    0.233427    0.846388
C      3.458818    0.308238    1.098842
C      2.991066    0.654686    2.386496
C      1.622094    0.732761    2.665175
C      0.724679    0.460017    1.645882
C      1.186715    0.112363    0.356005
C      2.544153    0.035536    0.071777
C      0.000040   -0.143457   -0.573911
C     -0.000132    0.742690   -1.820171
C     -0.000090    2.129093   -1.904811
C     -0.000356    2.712110   -3.172665
C     -0.000691    1.914804   -4.328909
C     -0.000731    0.519068   -4.239011
C     -0.000424   -0.062800   -2.981759
C     -0.000340   -1.458945   -2.592758
C     -0.000532   -2.607437   -3.367448
C     -0.000378   -3.848445   -2.722228
C      0.000007   -3.932693   -1.320259
C      0.000210   -2.777774   -0.537106
C      0.000003   -1.547449   -1.182255
C     -1.186548    0.112273    0.356158
C     -2.544012    0.035380    0.072071
C     -3.458615    0.307914    1.099241
N     -4.863526    0.233093    0.846846
C     -5.638343    1.413662    0.600775
C     -5.076434    2.701709    0.556683
C     -5.870087    3.827605    0.312170
C     -7.239103    3.686720    0.103256
C     -7.814669    2.419180    0.134057
C     -7.019823    1.294319    0.377480
O     -7.679521    0.086662    0.375444
C     -6.933787   -1.049568    0.591516
C     -7.644581   -2.253994    0.567706
C     -6.982272   -3.459373    0.785020
C     -5.611843   -3.458807    1.029006
C     -4.902260   -2.253312    1.053579
C     -5.549746   -1.025481    0.829718
C     -2.990737    0.654268    2.386878
C     -1.621731    0.732489    2.665398
C     -0.724399    0.459925    1.645981
H      7.854513    4.560595   -0.095558
H      5.412451    4.813421    0.274373
H      4.009721    2.850188    0.700289
H      8.881138    2.302089   -0.038262
H      8.715719   -2.246763    0.384415
H      7.535167   -4.394600    0.773370
H      5.090645   -4.395370    1.208429
H      3.835443   -2.292905    1.254713
H      3.711525    0.860259    3.175623
H      1.284330    0.999078    3.661030
H      2.893549   -0.229749   -0.921953
H      0.000136    2.745527   -1.011310
H     -0.000312    3.795470   -3.267922
H     -0.000917    2.390315   -5.307093
H     -0.001003   -0.084998   -5.139987
H     -0.000793   -2.556512   -4.451024
H     -0.000546   -4.761277   -3.313606
H      0.000153   -4.909113   -0.841423
H      0.000515   -2.842647    0.546509
H     -2.893483   -0.229807   -0.921661
H     -4.010366    2.850392    0.704944
H     -5.413695    4.813875    0.282324
H     -7.855672    4.560911   -0.088008
H     -8.881582    2.301979   -0.034563
H     -8.714748   -2.247492    0.380223
H     -7.533633   -4.395619    0.765921
H     -5.089216   -4.396365    1.201461
H     -3.834636   -2.293645    1.251388
H     -3.711115    0.859670    3.176125
H     -1.283880    0.998777    3.661233
