96

C     -7.344009   -3.458507   -1.422915
C     -7.828418   -2.756321   -0.325395
C     -7.180107   -1.594099    0.104420
C     -6.037884   -1.089017   -0.557508
C     -5.293071    0.207238   -0.032067
C     -6.257393    1.431505    0.245918
C     -7.556523    1.524495   -0.294247
C     -8.367971    2.637558   -0.045782
C     -7.890265    3.695054    0.723975
C     -6.596141    3.650934    1.234388
C     -5.785378    2.537875    0.990941
C     -4.589023   -0.211848    1.298268
C     -5.321850   -0.300484    2.509952
C     -4.731187   -0.723053    3.699699
C     -3.390759   -1.066852    3.709196
C     -2.648994   -0.984025    2.529709
C     -3.227095   -0.564036    1.307525
N     -2.428781   -0.448086    0.118637
C     -1.163124   -1.123015    0.048795
C     -1.137854   -2.523481    0.034278
N      0.001377   -3.255042   -0.006390
C      1.139158   -2.520486   -0.035662
C      1.161700   -1.120230   -0.025635
N      2.425014   -0.441201   -0.092064
C      2.911764    0.299035    1.037574
C      2.057241    0.670198    2.100167
C      2.522989    1.361250    3.220298
C      3.863839    1.687063    3.317001
C      4.732090    1.325320    2.289925
C      4.276613    0.646738    1.129226
C      5.295186    0.199928    0.029029
C      6.051841   -1.117542    0.478404
C      7.191868   -1.581455   -0.217708
C      7.852853   -2.758936    0.149726
C      7.382454   -3.520005    1.214002
C      6.248707   -3.107055    1.904643
C      5.588375   -1.927298    1.538091
C      6.254978    1.437103   -0.210698
C      5.772687    2.569602   -0.907943
C      6.573474    3.698112   -1.107297
C      7.867629    3.734432   -0.596447
C      8.355031    2.648778    0.126310
C      7.555865    1.517639    0.327548
C      4.560864   -0.157868   -1.304049
C      5.267458   -0.195503   -2.534288
C      4.648605   -0.557744   -3.728278
C      3.304901   -0.890143   -3.726114
C      2.588204   -0.855680   -2.530174
C      3.196668   -0.500832   -1.301972
N     -0.000949   -0.420937    0.019192
C     -2.890359    0.346024   -0.986145
C     -2.015911    0.761534   -2.015841
C     -2.458453    1.501276   -3.113739
C     -3.797257    1.834102   -3.221942
C     -4.684925    1.431968   -2.227197
C     -4.252108    0.702322   -1.088856
C     -5.560674   -1.840428   -1.653682
C     -6.208133   -3.003426   -2.084209
H     -7.845288   -4.362018   -1.756315
H     -8.711727   -3.112358    0.202019
H     -7.594937   -1.079165    0.967598
H     -7.956643    0.741571   -0.935277
H     -9.371659    2.678191   -0.463164
H     -8.520913    4.561461    0.914071
H     -6.210930    4.485605    1.817055
H     -4.769107    2.544751    1.385853
H     -6.375795   -0.028760    2.541786
H     -5.320909   -0.774784    4.611123
H     -2.912753   -1.387206    4.631970
H     -1.591268   -1.229043    2.594111
H     -2.059830   -3.096817    0.056233
H      2.061899   -3.091234   -0.068145
H      0.994403    0.445602    2.071474
H      1.831693    1.640074    4.011329
H      4.238612    2.217757    4.188261
H      5.783282    1.574076    2.411637
H      7.597327   -1.021798   -1.057552
H      8.734328   -3.079505   -0.400611
H      7.894750   -4.435225    1.500469
H      5.869769   -3.704373    2.731350
H      4.698571   -1.665616    2.105608
H      4.754595    2.583381   -1.297626
H      6.178791    4.551426   -1.653348
H      8.489813    4.614048   -0.745675
H      9.356721    2.685724    0.548900
H      7.964067    0.712341    0.934951
H      6.320482    0.074096   -2.573581
H      5.216448   -0.574457   -4.655253
H      2.806551   -1.162543   -4.651742
H      1.524959   -1.082568   -2.581849
H     -0.953533    0.534167   -1.979210
H     -1.750431    1.812183   -3.877511
H     -4.155922    2.401906   -4.076598
H     -5.733819    1.686843   -2.358765
H     -4.667897   -1.544892   -2.198967
H     -5.818532   -3.555291   -2.937202
