  109
 
 C        -10.1909698961       -1.4904632031       -3.8054402610
 C        -10.9123774105       -1.1673753142       -2.6673116130
 C        -10.2648479412       -0.9428883659       -1.4675865079
 C         -8.8761679714       -1.0496308193       -1.3867465519
 N         -8.2163964949       -0.8341114042       -0.1708788399
 C         -8.8003572333       -1.2618389235        1.0285568208
 C         -9.5045478929       -2.4645889585        1.0846641779
 C        -10.0852993296       -2.8769109274        2.2686449781
 C         -9.9675799604       -2.1063502564        3.4143762491
 C         -9.2643153944       -0.9133356792        3.3654536725
 C         -8.6866955888       -0.4888109525        2.1842345819
 C         -6.9676885209       -0.2050352742       -0.1527420672
 C         -6.6903082595        0.8525585922       -1.0201836457
 C         -5.4566072499        1.4684907348       -1.0001971595
 C         -4.4574487791        1.0496837754       -0.1222853805
 C         -3.1434488207        1.7048916632       -0.1061122187
 C         -1.9733973677        0.9563638777        0.0113217361
 C         -0.7353848888        1.5661495516        0.0238592619
 C         -0.6302346807        2.9525334827       -0.0778794485
 C          0.6417275058        3.6550829130       -0.0396437467
 N          0.7885168633        4.8298778393        0.5258066853
 C          2.1013901295        5.1514236690        0.3823688146
 C          2.7675506667        6.3182520071        0.8510586143
 C          2.0802667541        7.3136740549        1.5549639101
 C          2.7439798106        8.4234360658        2.0153810465
 C          4.1119270599        8.5487440299        1.7789579294
 C          4.7969953665        7.5783386747        1.0854018538
 C          4.1525774670        6.4332048656        0.5908783857
 C          4.8425697308        5.4046379809       -0.1693879884
 C          6.2049992281        5.5143856097       -0.4847101368
 C          6.8610012535        4.5655356326       -1.2329213886
 C          6.1702506143        3.4584504114       -1.7159415330
 C          4.8364939636        3.3099657828       -1.4249536634
 C          4.1534048886        4.2536209603       -0.6436392934
 C          2.7744054778        4.1429376315       -0.3059081940
 N          1.8230395649        3.1801973091       -0.5623467058
 C          1.9522666536        1.9792262156       -1.2970131373
 C          1.3134568198        1.8643533747       -2.5253702657
 C          1.4203214474        0.6811149679       -3.2355249332
 C          2.1569040588       -0.3735398391       -2.7302799082
 C          2.8003577933       -0.2700937649       -1.4965965404
 C          3.5769546288       -1.3972839884       -0.9590529380
 C          4.4101119083       -2.1371886887       -1.8109687511
 C          5.1454304313       -3.2137855899       -1.3616128634
 C          5.0296088767       -3.5707702044       -0.0245864449
 C          4.2130949256       -2.8225648191        0.8562473074
 C          3.4916568029       -1.7362488891        0.3853212079
 C          4.3492064610       -3.4300371583        2.1509509453
 C          3.7902653593       -3.1667561234        3.3952552365
 C          4.1252724177       -3.9834609890        4.4568982997
 C          4.9958574048       -5.0586551995        4.2874347155
 C          5.5649961841       -5.3401682068        3.0600914554
 C          5.2480139833       -4.5106971190        1.9933607252
 N          5.6498322476       -4.5827825774        0.6740992488
 C          6.5292197848       -5.5359158023        0.1321482128
 C          6.1541694567       -6.2736893646       -0.9866920618
 C          7.0234355431       -7.2083246477       -1.5194137773
 C          8.2627892807       -7.4209246199       -0.9379614069
 C          8.6350963504       -6.6899061057        0.1784212543
 C          7.7767803501       -5.7454474164        0.7119148578
 C          2.6850505592        0.9179240957       -0.7806508725
 C         -1.8008548586        3.7073598743       -0.1736307427
 C         -3.0344910415        3.0930024450       -0.1959965123
 C         -4.7402125824       -0.0073881030        0.7421317920
 C         -5.9735951477       -0.6238110009        0.7328708558
 C         -8.1551462100       -1.3782016022       -2.5351428407
 C         -8.8108916387       -1.5913201810       -3.7323625186
 H        -10.7002384717       -1.6622373566       -4.7418796233
 H        -11.9882571982       -1.0803391872       -2.7150130116
 H        -10.8299911902       -0.6819227831       -0.5845743043
 H         -9.5906563323       -3.0714211086        0.1948675534
 H        -10.6269632860       -3.8113006668        2.2982859192
 H        -10.4208213277       -2.4330111465        4.3383490000
 H         -9.1715031566       -0.3031540632        4.2522847204
 H         -8.1458836339        0.4457767564        2.1468931358
 H         -7.4524522207        1.1879728622       -1.7085515302
 H         -5.2576697982        2.2790251346       -1.6858979818
 H         -2.0333154645       -0.1200317922        0.0796354104
 H          0.1502331260        0.9590818393        0.1322754779
 H          1.0230432329        7.1743288866        1.7228729455
 H          2.2157389492        9.1931027003        2.5589082207
 H          4.6407208272        9.4176795799        2.1439018552
 H          5.8546775754        7.7185036539        0.9283961739
 H          6.7669028034        6.3678705368       -0.1414506550
 H          7.9115221215        4.6856668707       -1.4540582552
 H          6.6778429645        2.7193883680       -2.3182302683
 H          4.3025596981        2.4570609004       -1.8115021426
 H          0.7415292730        2.6954552935       -2.9102463856
 H          0.9229690954        0.5849364736       -4.1889315709
 H          2.2211812601       -1.2974200916       -3.2848196675
 H          4.4957227310       -1.8370876824       -2.8448933814
 H          5.7973324742       -3.7551594274       -2.0303463268
 H          2.8539386989       -1.1778590853        1.0542242070
 H          3.1042400411       -2.3428019992        3.5245254106
 H          3.7023765512       -3.7955540366        5.4329689875
 H          5.2279777480       -5.6882720479        5.1340500129
 H          6.2261223660       -6.1843914191        2.9352241418
 H          5.1790568097       -6.1184714983       -1.4242542915
 H          6.7277976393       -7.7787061206       -2.3876790373
 H          8.9368001859       -8.1547345618       -1.3538204635
 H          9.6021360701       -6.8493501317        0.6323253210
 H          8.0705142886       -5.1593791091        1.5702107937
 H          3.1836442654        1.0316629532        0.1715582659
 H         -1.7179490506        4.7822559959       -0.2275896781
 H         -3.9296431012        3.6939849620       -0.2613683391
 H         -3.9870446164       -0.3398464782        1.4413394392
 H         -6.1764444987       -1.4398056177        1.4112594943
 H         -7.0800001876       -1.4688517670       -2.4797118803
 H         -8.2397311759       -1.8477615984       -4.6129376658
