  54
 
 O          6.4104099804       -2.3082498917       -0.5175607038
 C          5.9372442281       -1.1561546833       -0.3318858832
 C          6.8667584214       -0.0140496001       -0.1813647137
 C          6.6129656760        1.2263212660       -0.7702687237
 C          7.5289574439        2.2539356878       -0.6488377413
 C          8.7106340375        2.0620923519        0.0511628799
 C          8.9818299643        0.8252451128        0.6161547690
 C          8.0740923660       -0.2081460357        0.4926756681
 C          4.5202133121       -0.9264196347       -0.2514437137
 C          3.6323084044       -1.9502225123       -0.6766258895
 C          2.2820645428       -1.7841028021       -0.6363410181
 C          1.6887073100       -0.5993365133       -0.1192055597
 C          0.2716091568       -0.4222478304       -0.0835472518
 C         -0.3506447926        0.5081490509        0.7904634258
 C         -1.7070357505        0.6787510614        0.8185413113
 C         -2.5436923673       -0.0791349689       -0.0201238963
 N         -3.9204404058        0.0847415951        0.0141899504
 C         -4.5927562480        1.2930333636        0.0300003978
 C         -4.0905760645        2.5862122984       -0.0529405041
 C         -4.9967203239        3.6320810761       -0.0499303467
 C         -6.3683261525        3.4037670962        0.0175831478
 C         -6.8767725297        2.1149778671        0.0627691898
 C         -5.9878047902        1.0531530982        0.0637363574
 C         -6.1558569094       -0.3784919728        0.0739218223
 C         -7.2652395814       -1.2056842804        0.1278408481
 C         -7.0668890537       -2.5772834765        0.1595934506
 C         -5.7836634004       -3.1170104956        0.1615792435
 C         -4.6612168451       -2.3093211383        0.1102967324
 C         -4.8543245634       -0.9348928766        0.0402707173
 C         -1.9516077353       -1.0093900363       -0.8930496224
 C         -0.5942152123       -1.1692384036       -0.9260217597
 C          2.5848438430        0.3885749154        0.3745097579
 C          3.9384647688        0.2387890968        0.3080236011
 H          5.7107476488        1.3716065409       -1.3466145985
 H          7.3239040849        3.2087421768       -1.1116768176
 H          9.4220473564        2.8692985891        0.1458203469
 H          9.9065174790        0.6641332751        1.1516629581
 H          8.2769291172       -1.1794261803        0.9214152913
 H          4.0707823744       -2.8637441377       -1.0531972602
 H          1.6512078850       -2.5946454930       -0.9683462187
 H          0.2543205397        1.0624238003        1.4896363808
 H         -2.1525552100        1.3565071605        1.5314455799
 H         -3.0316142682        2.7739942078       -0.1344878708
 H         -4.6311833481        4.6461742110       -0.1081104809
 H         -7.0451094648        4.2448626777        0.0197049757
 H         -7.9413116621        1.9410401452        0.0898585343
 H         -8.2608119641       -0.7903147466        0.1518576583
 H         -7.9187706505       -3.2393212612        0.1983180330
 H         -5.6597233810       -4.1882484161        0.2110734477
 H         -3.6717966106       -2.7375446418        0.1415157964
 H         -2.5778489065       -1.5564885348       -1.5820233046
 H         -0.1701817947       -1.8468944714       -1.6494420289
 H          2.1895975550        1.3032367344        0.7891152602
 H          4.5812878008        1.0072470324        0.7109118207
