  48
 
 C          1.7968209718       -2.6789362409        0.5834162224
 C          0.7102685479       -1.6063161356        0.6020459919
 C          0.3212428494       -1.4304402365        2.0926410336
 C         -0.5295121609       -2.0542858140       -0.1454621820
 C         -0.7439929847       -3.3452735193       -0.6002207028
 C         -1.9507013263       -3.7123830597       -1.1723154570
 C         -2.9659501792       -2.7818000047       -1.2973146812
 C         -2.7644747483       -1.4810856453       -0.8805610669
 C         -1.5475063563       -1.1092687822       -0.3136250067
 N         -1.3055003264        0.2085663709        0.0605255754
 C         -2.4099703072        1.1040312266        0.0821517783
 C         -3.2431329213        1.1137333056        1.1929148338
 C         -4.3359529022        1.9620176067        1.2285264689
 C         -4.6004529889        2.8001693870        0.1587501740
 C         -3.7738227314        2.7860822227       -0.9530164826
 C         -2.6819779929        1.9384053199       -0.9968312494
 C         -0.0055913374        0.6843079975        0.0808022911
 C          0.2073082346        2.0792127278        0.1159084238
 C          1.4679810926        2.5844864485        0.0855001114
 C          2.5704755749        1.7285825443       -0.1075317200
 C          3.8529383623        2.2762583833       -0.2635433494
 C          4.9416080433        1.4730513428       -0.5186181674
 C          6.2307218179        2.0247026423       -0.6684514921
 N          7.2822526386        2.4687126350       -0.7871536082
 C          4.7417786452        0.0851084757       -0.6731346847
 C          3.5054770378       -0.4629990664       -0.4945067534
 C          2.3703118385        0.3123321781       -0.1451554835
 C          1.0720446243       -0.2064728851        0.1061685924
 H          1.4276984074       -3.5590023970        1.1075626121
 H          2.6797401523       -2.3345989992        1.1147224594
 H          2.0601707840       -2.9762483898       -0.4285287177
 H         -0.4690848139       -0.6961121367        2.2183807264
 H          1.1876143291       -1.1005453314        2.6625872755
 H         -0.0259980899       -2.3785088706        2.4985145620
 H          0.0244271868       -4.0940094410       -0.4996722429
 H         -2.0985545083       -4.7279028880       -1.5068741661
 H         -3.9141750092       -3.0626231215       -1.7305232633
 H         -3.5491280433       -0.7495529221       -1.0002359492
 H         -3.0318680427        0.4530535407        2.0207218860
 H         -4.9808106330        1.9686197467        2.0943892356
 H         -5.4527449535        3.4620368661        0.1888254664
 H         -3.9828665970        3.4333588428       -1.7915894539
 H         -2.0369313916        1.9138088503       -1.8631401782
 H         -0.6391494321        2.7406730326        0.2133466847
 H          1.6368338975        3.6473282126        0.1736326301
 H          3.9730442954        3.3487523758       -0.2006265941
 H          5.5800011728       -0.5374738047       -0.9502835025
 H          3.3990912736       -1.5115515908       -0.6931208801
