  176
 
 C         -6.0261210209       -2.5543746887       -0.3622012655
 C         -5.7351123944       -1.2159871431       -0.7014200794
 C         -6.6371135863       -0.1856785357       -0.5393863036
 N         -7.8913947665       -0.2951240096       -0.0702575228
 C         -8.3826354693        0.9413084680       -0.0182358420
 C         -9.6722218488        1.3477236312        0.4348333699
 C        -10.5883580043        0.4079277567        0.9149232463
 C        -11.8185112187        0.8091698904        1.3781262436
 C        -12.1404313167        2.1634105739        1.3692621240
 C        -11.2469438073        3.0972308886        0.8930696049
 C         -9.9872326269        2.7257949792        0.4024331245
 C         -9.0380436318        3.6840138617       -0.1396369263
 C         -9.3511021333        5.0421007802       -0.2607669976
 C         -8.4751003946        5.9496753026       -0.8130356301
 C         -7.2374815592        5.5251220726       -1.2908957713
 C         -6.8855375281        4.2043081013       -1.1854551666
 C         -7.7532100801        3.2637804313       -0.5990020216
 C         -7.4348951375        1.8927661083       -0.4727120712
 N         -6.3246630675        1.1664550123       -0.8065743708
 C         -5.0454237092        1.6066406367       -1.1710537578
 C         -4.3183121434        2.4560238386       -0.3371327619
 C         -3.0396506613        2.8424415460       -0.6795245001
 C         -2.4502126280        2.3775892535       -1.8578020579
 N         -1.1475696943        2.7447897925       -2.2073936690
 C         -0.3093639594        1.7865415640       -2.7954778806
 C         -0.3454192009        0.4639095304       -2.3532780623
 C          0.4952357518       -0.4811748323       -2.9093959846
 C          1.3824857236       -0.1265767648       -3.9124937666
 C          1.4106038592        1.1821058384       -4.3666827508
 C          0.5701324014        2.1330046694       -3.8205100782
 C         -0.7012184969        4.0536780760       -2.0100424232
 C          0.6488111009        4.3164285481       -1.7715407871
 C          1.0878976693        5.6145546897       -1.5976599967
 C          0.1931450349        6.6711279363       -1.6332919623
 C         -1.1491987304        6.4165532968       -1.8599698115
 C         -1.5948382190        5.1243173177       -2.0570723247
 C         -3.1832410086        1.5289499536       -2.6895911686
 C         -4.4640325782        1.1486644851       -2.3519122070
 C         -5.1274988707       -3.6100976076       -0.4565781451
 C         -3.8344415285       -3.4926193891       -1.0498932554
 C         -2.9223658299       -4.4975309868       -0.9738834337
 C         -3.1914657359       -5.7098028031       -0.2905963078
 C         -2.1287578542       -6.6377478965       -0.0046165231
 C         -0.9035432806       -6.5872237771       -0.7011348678
 C          0.1989577036       -7.2671501473       -0.2569235964
 C          0.1353577211       -8.0633398701        0.8925871112
 N          1.3326562336       -8.5378018446        1.4456908506
 C          1.4657113914       -9.8284415634        1.9349967554
 C          0.6838265698      -10.8597041698        1.4092553786
 C          0.8087714642      -12.1446171218        1.8975029285
 C          1.7152595910      -12.4286409251        2.9064872246
 C          2.4953429050      -11.4097717305        3.4294006126
 C          2.3731193873      -10.1187099414        2.9560656274
 C          2.3387180003       -7.5681779457        1.5597151072
 C          3.6739151429       -7.8219795596        1.2490455096
 C          4.5928118554       -6.7899215081        1.2351337101
 C          4.2157115626       -5.4813640583        1.5376783399
 C          5.1012916931       -4.3245831491        1.3803613877
 C          6.0243507729       -4.2502414566        0.3364761420
 C          6.6914741344       -3.0735242472        0.0626130845
 C          6.4390748439       -1.9179040777        0.8044860336
 C          6.9636609655       -0.6312995921        0.3853158827
 C          6.2528162754        0.4956959460        0.5435266473
 C          6.6597996473        1.8026280031        0.1272034187
 N          7.8716861315        2.1789012803       -0.2088656203
 C          7.7924959594        3.5097378941       -0.4525675162
 C          8.8437072141        4.3883577915       -0.8375616550
 C         10.1480710897        3.9171794286       -1.0194990972
 C         11.1523256417        4.7787461426       -1.3834751882
 C         10.8611084408        6.1286229384       -1.5699118592
 C          9.5821146599        6.6026589052       -1.3941079808
 C          8.5280023761        5.7536621440       -1.0234242559
 C          7.1661577566        6.2235535379       -0.8358697368
 C          6.8204842419        7.5705425347       -1.0136426358
 C          5.5339780739        8.0229667495       -0.8401849923
 C          4.5219595502        7.1354404274       -0.4886272623
 C          4.8164933530        5.8062993537       -0.3100144070
 C          6.1256815533        5.3281862273       -0.4642306465
 C          6.4850973448        3.9672617014       -0.2626269020
 N          5.7647034764        2.8591385611        0.1064746915
 C          4.3916822776        2.6903684306        0.3781099950
 C          3.8115702336        3.2176828735        1.5282172825
 C          2.4984023151        2.9279469928        1.8370334642
 C          1.7404491488        2.0898048393        1.0154733346
 N          0.4358797646        1.7382634945        1.3691994717
 C         -0.3942616172        2.6949908456        1.9711532152
 C         -1.2696414377        2.3451459436        2.9985321677
 C         -2.1050283759        3.2951148101        3.5538469756
 C         -2.0753907312        4.6064167940        3.1072999583
 C         -1.1910246563        4.9643449571        2.1030701188
 C         -0.3558308911        4.0199787785        1.5375084060
 C         -0.0122208272        0.4234694210        1.1894094382
 C          0.8795622954       -0.6480265536        1.2457437542
 C          0.4283507451       -1.9426371394        1.0742151671
 C         -0.9169120071       -2.2001462521        0.8723755109
 C         -1.8089929180       -1.1418787070        0.8200360201
 C         -1.3641438981        0.1587307698        0.9621526903
 C          2.3196224569        1.5902994987       -0.1532469554
 C          3.6292806339        1.8871768553       -0.4665395212
 C          5.5971356878       -2.0245981982        1.9152359263
 C          4.9502823413       -3.2042440265        2.2015151944
 C          2.8906107242       -5.2544407460        1.9171639876
 C          1.9694414293       -6.2730116527        1.9298648911
 C         -1.1071776875       -8.2528600840        1.5027366943
 C         -2.2063671307       -7.5523171434        1.0649033308
 C         -4.5173652105       -5.8830883551        0.1804432978
 C         -5.4455885512       -4.8922020077        0.0874436027
 H         -7.0072636303       -2.7385387231        0.0503484075
 H         -4.7514232325       -0.9603294971       -1.0631273305
 H        -10.2927373578       -0.6296018140        0.9108219752
 H        -12.5289439688        0.0859218466        1.7498257866
 H        -13.1024702993        2.4880089326        1.7390176695
 H        -11.5413728516        4.1346319404        0.9092103919
 H        -10.3093551079        5.4040068658        0.0755830370
 H         -8.7542977897        6.9901557768       -0.8880861475
 H         -6.5603088449        6.2326104026       -1.7462947248
 H         -5.9351665989        3.8731247579       -1.5732331239
 H         -4.7604439674        2.8044504168        0.5849104654
 H         -2.4821109325        3.4962724782       -0.0250660494
 H         -1.0253661859        0.1835206534       -1.5628532221
 H          0.4631992933       -1.4968393816       -2.5431994696
 H          2.0439770685       -0.8646676049       -4.3396367011
 H          2.0882382490        1.4650759029       -5.1585841824
 H          0.5891835833        3.1490769104       -4.1861472648
 H          1.3530850485        3.4990776767       -1.7194202764
 H          2.1381911148        5.7974086927       -1.4295275890
 H          0.5392223889        7.6836219276       -1.4913782070
 H         -1.8556573673        7.2326947137       -1.8981042681
 H         -2.6395966393        4.9391981540       -2.2582002541
 H         -2.7414044570        1.1767731276       -3.6098376514
 H         -5.0329721791        0.5095044770       -3.0106963742
 H         -3.5684203594       -2.5841365959       -1.5682266347
 H         -1.9487405465       -4.3381936791       -1.4117807821
 H         -0.8193031025       -6.0017106847       -1.6028940332
 H          1.1408455776       -7.1775696069       -0.7791793478
 H         -0.0118691907      -10.6431954020        0.6119097195
 H          0.1989290333      -12.9328948147        1.4812432417
 H          1.8122498341      -13.4354298115        3.2828980461
 H          3.1995270275      -11.6203758992        4.2208935029
 H          2.9684348572       -9.3242851880        3.3814504198
 H          3.9783858729       -8.8245213380        0.9856494992
 H          5.6195853653       -7.0033796522        0.9767809628
 H          6.1814898882       -5.1105233664       -0.2977109400
 H          7.3739728840       -3.0250448852       -0.7737629138
 H          7.9095661897       -0.6002798295       -0.1349161056
 H          5.2728351581        0.4458674375        1.0001952773
 H         10.3295616283        2.8653387048       -0.8623834969
 H         12.1609967764        4.4193706426       -1.5245691091
 H         11.6482637918        6.8115035802       -1.8557574693
 H          9.4053656982        7.6551021377       -1.5500176286
 H          7.5767848019        8.2861859608       -1.2926604144
 H          5.3076772857        9.0698022685       -0.9800086654
 H          3.5116984416        7.4935012882       -0.3529793100
 H          4.0318424723        5.1141276289       -0.0456554148
 H          4.4020619786        3.8362143110        2.1881719536
 H          2.0588612317        3.3261291776        2.7393209946
 H         -1.2906732436        1.3270121001        3.3580985774
 H         -2.7802991547        3.0093130021        4.3467600721
 H         -2.7332481338        5.3436091863        3.5415346273
 H         -1.1560159873        5.9825284735        1.7443394864
 H          0.3224156845        4.3030179720        0.7468074253
 H          1.9279596351       -0.4657099428        1.4312962564
 H          1.1345093112       -2.7591666442        1.1075865734
 H         -1.2708542136       -3.2132046443        0.7596608859
 H         -2.8605211133       -1.3316702080        0.6626180287
 H         -2.0661405490        0.9770955479        0.8980048621
 H          1.7402645517        0.9562655560       -0.8075827406
 H          4.0747690572        1.4875107823       -1.3657516130
 H          5.4548147759       -1.1684678895        2.5582242729
 H          4.3123288637       -3.2609213395        3.0714635101
 H          2.5710184999       -4.2561144807        2.1737056185
 H          0.9451278895       -6.0716942502        2.2070472618
 H         -1.1824031983       -8.9022023099        2.3632232299
 H         -3.1319571187       -7.6584344847        1.6087795333
 H         -4.8025020076       -6.8301246527        0.6144226951
 H         -6.4464262531       -5.0496812947        0.4634621152
