  42
 
 N          3.4045741297        2.9564139806       -0.4498527413
 C          3.1680864781        1.8397740268       -0.3042047737
 C          2.8034833348        0.4871802471       -0.1501029913
 C          3.7823552569       -0.5259598816       -0.1423646439
 C          5.1884038408       -0.4154848453       -0.0451053872
 C          5.8799097881        0.7674783500        0.2971995179
 C          7.2533809490        0.7817429469        0.3779730437
 C          7.9924789195       -0.3683965540        0.1281096028
 C          7.3338617513       -1.5503616832       -0.1941967634
 C          5.9628207576       -1.5788486742       -0.2727341941
 C          1.4109528710        0.2276492117       -0.0778711144
 C          0.8747864544       -1.0597667160        0.2102015537
 C         -0.4647498909       -1.2734491526        0.2793410817
 C         -1.4097597651       -0.2261015394        0.0781704929
 C         -2.8024547875       -0.4857635018        0.1506237329
 C         -3.1664896287       -1.8384931295        0.3054288546
 N         -3.4022536161       -2.9552286732        0.4514633161
 C         -3.7811839855        0.5270510523        0.1417646442
 C         -5.1876439021        0.4169897005        0.0475471333
 C         -5.9605670462        1.5820055940        0.2714076447
 C         -7.3317945265        1.5545102496        0.1953583604
 C         -7.9920645279        0.3717458999       -0.1204423233
 C         -7.2544782486       -0.7802066110       -0.3662298222
 C         -5.8808166300       -0.7668553239       -0.2879505823
 C         -0.8735943920        1.0612762267       -0.2099319041
 C          0.4659284179        1.2750321193       -0.2789808205
 H          3.4151065755       -1.5360155822       -0.2612961747
 H          5.3268148534        1.6655989725        0.5148536844
 H          7.7607306642        1.6975871962        0.6427470590
 H          9.0697684760       -0.3468946562        0.1907942284
 H          7.9029964375       -2.4491724765       -0.3816489393
 H          5.4570344773       -2.4999341903       -0.5259983201
 H          1.5402910502       -1.8867925529        0.4014743585
 H         -0.8333830841       -2.2623780556        0.5086482158
 H         -3.4136805249        1.5374822295        0.2566160321
 H         -5.4535258010        2.5037912024        0.5195783970
 H         -7.8997220279        2.4547250435        0.3797018805
 H         -9.0694815646        0.3509753826       -0.1811870019
 H         -7.7631260658       -1.6968225829       -0.6257900162
 H         -5.3290331554       -1.6665726042       -0.5022191117
 H         -1.5389894478        1.8883923492       -0.4011737840
 H          0.8346054570        2.2639627270       -0.5082253831
