  79
 
 C          0.8104730695        3.1152344910        3.0419551941
 C          1.5644077390        1.8591773202        2.7293104550
 C          1.6896332264        0.8640980483        3.7023975830
 C          2.3782599077       -0.3060412364        3.4608235362
 C          2.9457756960       -0.4983170589        2.2089531022
 C          3.7540069686       -1.5364495514        1.6330081548
 C          4.2384746262       -2.7523181383        2.0962050287
 C          5.0112228559       -3.5240872140        1.2533508464
 C          5.3063538621       -3.1197554026       -0.0524835244
 C          6.1417658419       -4.0068589535       -0.9271689933
 C          4.8260307930       -1.9099369533       -0.5276359559
 C          4.0638754679       -1.1214687928        0.3200578569
 N          3.4635295988        0.0989973407        0.0742814979
 C          3.5991881562        0.8313872694       -1.1033281135
 C          4.8783706269        1.1779114037       -1.5345917352
 C          5.0670706108        1.9178127665       -2.6850270676
 C          3.9722569237        2.3340129433       -3.4289900456
 C          2.7003139745        1.9808426280       -3.0306619261
 C          2.4922426172        1.2167997899       -1.8795203206
 C          1.1518612861        0.7698745447       -1.5805128281
 N          0.7125087880        0.1097173044       -0.5491906060
 N         -0.5850875866       -0.1361227148       -0.7501197253
 C         -0.9031233698        0.3716813971       -1.9046878093
 C         -2.1601840210        0.2580026778       -2.6108072930
 C         -2.1683452261        0.3673151423       -4.0012294202
 C         -3.3233649055        0.1313019500       -4.7189229414
 C         -4.4875989351       -0.2239158479       -4.0537477208
 C         -4.5027990849       -0.3036288486       -2.6743992106
 C         -3.3511430792       -0.0501494412       -1.9336150433
 N         -3.4100641239       -0.0577494849       -0.5421189735
 C         -3.9196122063       -1.0727246004        0.2446113916
 C         -4.3648249396       -2.3314803900       -0.1273959466
 C         -4.8191616183       -3.1907234057        0.8598827950
 C         -5.3143237368       -4.5624113731        0.5102333042
 C         -4.8149091323       -2.7835101362        2.1980840569
 C         -4.3557610678       -1.5396595732        2.5774655397
 C         -3.8999676368       -0.6690291115        1.5966053447
 C         -3.3697579713        0.6654174955        1.6174404597
 C         -3.1760422354        1.6059206357        2.6185143119
 C         -2.6992294073        2.8550687826        2.2742028515
 C         -2.4069110785        3.1905993674        0.9497039987
 C         -1.8722490704        4.5510373038        0.6119789842
 C         -2.5971029232        2.2573474306       -0.0581942644
 C         -3.0694100303        1.0003976263        0.2789562911
 O          0.1614951818        0.9690763886       -2.4895013083
 C          2.7892495664        0.4907877792        1.2152336563
 C          2.1196425122        1.6743152864        1.4733603310
 H          0.9036684715        3.3741047966        4.0944257778
 H          1.1716023409        3.9473561817        2.4412484322
 H         -0.2462998153        2.9665384376        2.8201776633
 H          1.2405807779        1.0280368778        4.6714891180
 H          2.4822903797       -1.0558254836        4.2307698777
 H          4.0110264458       -3.0865518461        3.0972022009
 H          5.3981346671       -4.4715405399        1.6004483520
 H          6.2902595523       -3.5609405520       -1.9075671172
 H          5.6593733165       -4.9752267277       -1.0558594392
 H          7.1166620331       -4.1801879802       -0.4724883466
 H          5.0379507124       -1.5934763815       -1.5393401244
 H          5.7237108679        0.8680581671       -0.9382376241
 H          6.0663135940        2.1823514654       -2.9965903855
 H          4.1137039801        2.9247731140       -4.3210570368
 H          1.8446883975        2.2845840021       -3.6150805299
 H         -1.2500762552        0.6173867349       -4.5115258352
 H         -3.3156563340        0.2134115219       -5.7949489007
 H         -5.3903293481       -0.4211925161       -4.6120935441
 H         -5.4157600694       -0.5427491994       -2.1498900022
 H         -4.3486584830       -2.6425165570       -1.1620501772
 H         -4.7004228818       -5.3204654711        0.9953930929
 H         -5.2825109304       -4.7274093383       -0.5638134803
 H         -6.3395768156       -4.6963930321        0.8536576864
 H         -5.1754166037       -3.4721403824        2.9487491397
 H         -4.3466735439       -1.2472695725        3.6166002135
 H         -3.4070092703        1.3684865970        3.6459501751
 H         -2.5659213304        3.6034339972        3.0431252241
 H         -0.7917136966        4.5022572357        0.4712846484
 H         -2.0777858798        5.2606627858        1.4096892965
 H         -2.3129572766        4.9220476351       -0.3115888645
 H         -2.3943656004        2.5219800039       -1.0868904562
 H          2.0341310874        2.4406171409        0.7160461669
