  56
 
 N         10.0018854838        0.7245079817       -0.5614825961
 C          8.9077379336        0.4829450486       -0.3233899658
 C          7.5638642278        0.1650493747       -0.0051841895
 N          6.5930075577        0.7314194248       -0.7315223589
 C          5.3658856936        0.4055717076       -0.3955613497
 C          5.0824698434       -0.5014412557        0.6859233884
 N          6.0367425277       -1.0601821942        1.3966666631
 C          7.2861584396       -0.7284035271        1.0533865933
 C          8.3549688664       -1.3022867720        1.7866098328
 N          9.2361466382       -1.7529015054        2.3633316374
 C          3.6464755281       -0.6456763366        0.7936978283
 C          2.7881284628       -1.3649533670        1.5921366592
 C          1.4108408467       -1.2279629783        1.3745747351
 C          0.8655695033       -0.4056041348        0.4015814713
 C         -0.5927630099       -0.2874263919        0.2745929833
 C         -1.3846899020       -1.4281815219        0.2009866041
 C         -2.7667297778       -1.3270018763        0.0848599574
 C         -3.5971800374       -2.5382738945       -0.0036584082
 C         -4.7942919900       -2.6290012422        0.7019862411
 C         -5.5714410390       -3.7696204149        0.6239814539
 C         -5.1683241333       -4.8340962911       -0.1647720386
 C         -3.9814896245       -4.7525316131       -0.8735743059
 C         -3.1996005873       -3.6153514893       -0.7917704004
 C         -3.3512354770       -0.0650004856        0.0541959742
 C         -2.5769614613        1.0878123726        0.1375161416
 C         -3.2066817917        2.4169810714        0.1076475805
 C         -4.3880146808        2.6579551998        0.8047808911
 C         -4.9785623866        3.9075122395        0.7777215032
 C         -4.4021000979        4.9346507239        0.0494616532
 C         -3.2286070214        4.7056545236       -0.6490300997
 C         -2.6334380331        3.4583322853       -0.6181800879
 C         -1.1956124201        0.9663104960        0.2456059823
 C          1.7343351941        0.3252232096       -0.4597853878
 C          1.3898806368        1.1486748868       -1.5556119225
 C          2.3655254796        1.7834241990       -2.2902948085
 C          3.7365206369        1.6494514980       -2.0137359130
 C          4.1068289353        0.8320766031       -0.9735828887
 C          3.1025801988        0.1791690804       -0.2191073989
 H          3.1565254382       -2.0132807265        2.3719756496
 H          0.7340637663       -1.7744493095        2.0159989110
 H         -0.9182107187       -2.4019333953        0.2298883259
 H         -5.1050632241       -1.8080865977        1.3319401760
 H         -6.4945363225       -3.8295671281        1.1818356574
 H         -5.7768672051       -5.7239327782       -0.2268830556
 H         -3.6643095638       -5.5783888070       -1.4934863817
 H         -2.2826228311       -3.5507576461       -1.3596820032
 H         -4.4204145020        0.0213157688       -0.0711596244
 H         -4.8332941053        1.8654743406        1.3885635422
 H         -5.8915406096        4.0817654547        1.3281453678
 H         -4.8653033462        5.9097751832        0.0266064391
 H         -2.7760343947        5.5023370022       -1.2212778854
 H         -1.7257883393        3.2838373605       -1.1780416501
 H         -0.5874399317        1.8520163319        0.3580751775
 H          0.3516573778        1.2658379502       -1.8285177514
 H          2.0703913588        2.4067149679       -3.1218675828
 H          4.4709559900        2.1644963941       -2.6131119666
