  74
 
 C          7.4075426227       -1.4175822665        0.5164638691
 C          6.0183624428       -0.7844637181        0.6026382711
 C          5.7425498736       -0.4279915416        2.0813574364
 C          5.9046278698        0.4879036081       -0.2109122402
 C          6.9900889142        1.2182645391       -0.6685706980
 C          6.8166101638        2.4144950501       -1.3450697355
 C          5.5396975624        2.8960158572       -1.5863854224
 C          4.4438516916        2.1781139258       -1.1556467643
 C          4.6155991514        0.9791168634       -0.4613660467
 N          3.5028060684        0.2265487080       -0.0858061023
 C          2.3302931816        0.8866068385        0.2835560665
 C          2.4193770098        2.0184115838        1.0851956321
 C          1.2494240126        2.6376613009        1.5104466458
 C          0.0009442473        2.1029487885        1.1613818121
 C         -1.2480050685        2.6337194388        1.5148096559
 C         -2.4174599261        2.0106664317        1.0937809299
 C         -2.3275991823        0.8790656147        0.2919472626
 N         -3.4993113025        0.2152047109       -0.0731792267
 C         -3.6353220989       -1.1769188453       -0.0900130381
 C         -2.5554232765       -2.0048508084       -0.3887690573
 C         -2.7296875072       -3.3709214290       -0.4805546047
 C         -3.9829416741       -3.9225062442       -0.2755737604
 C         -5.0531325644       -3.1041229429        0.0474864755
 C         -4.9017441284       -1.7312841744        0.1603937176
 C         -6.0095615221       -0.8036840938        0.6232782392
 C         -5.7304783352       -0.4460414707        2.1011009689
 C         -7.3969618606       -1.4412589001        0.5413873942
 C         -5.9023473727        0.4689136494       -0.1907876294
 C         -6.9915402865        1.1958038340       -0.6450857914
 C         -6.8239869814        2.3926096377       -1.3220626101
 C         -5.5493711533        2.8781872503       -1.5673429891
 C         -4.4499126471        2.1637265284       -1.1401073721
 C         -4.6156628730        0.9641933048       -0.4452854053
 N         -1.1377510689        0.3847088825       -0.0841748153
 C          0.0013550412        0.9233143518        0.3285370558
 N          1.1407109870        0.3884059257       -0.0882857758
 C          3.6431928039       -1.1651404743       -0.1035199572
 C          2.5650557963       -1.9964048609       -0.3993369027
 C          2.7433973966       -3.3618950715       -0.4919785227
 C          3.9990027874       -3.9095345889       -0.2908576256
 C          5.0675546818       -3.0878425888        0.0292122435
 C          4.9121284375       -1.7155181769        0.1428916956
 H          7.4543574115       -2.3061415910        1.1399681682
 H          8.1577552147       -0.7257290664        0.8897486270
 H          7.6493230603       -1.6871895108       -0.5090477734
 H          5.7860790221       -1.3262601681        2.6934456737
 H          6.4886071035        0.2789068623        2.4385385214
 H          4.7580841852        0.0186623517        2.2005542541
 H          7.9927732383        0.8639621175       -0.4954195157
 H          7.6783205869        2.9691529091       -1.6843593296
 H          5.3968576071        3.8230893899       -2.1211111277
 H          3.4430680469        2.5280870576       -1.3623880189
 H          3.3852848540        2.3797069889        1.4036194951
 H          1.2938837942        3.5173190425        2.1346870876
 H         -1.2930722358        3.5132977726        2.1391169505
 H         -3.3833967697        2.3689292207        1.4155300438
 H         -1.5886465964       -1.5544250412       -0.5486795768
 H         -1.8862263215       -4.0023527705       -0.7164291293
 H         -4.1276005448       -4.9899728748       -0.3501334165
 H         -6.0145832092       -3.5587085568        0.2205632259
 H         -5.7691883203       -1.3443455404        2.7134627069
 H         -4.7471458154        0.0038990350        2.2172546404
 H         -6.4777940026        0.2584461475        2.4604120661
 H         -7.6409618760       -1.7118157797       -0.4833480537
 H         -8.1482529775       -0.7517359487        0.9168029469
 H         -7.4390747802       -2.3298545733        1.1651767283
 H         -7.9925454391        0.8383023569       -0.4688267740
 H         -7.6885364566        2.9445366878       -1.6585712729
 H         -5.4111195320        3.8057459955       -2.1024295925
 H         -3.4509201853        2.5168754484       -1.3500586816
 H          1.5963716719       -1.5490196875       -0.5561955852
 H          1.9012770082       -3.9959657216       -0.7255503337
 H          4.1468312507       -4.9765161022       -0.3661320360
 H          6.0309632541       -3.5394070970        0.1992842849
