  76
 
 N         10.4900892584       -0.9493621075        0.8565415682
 C          9.3727878519       -0.7524613099        0.6812633294
 C          8.0010294592       -0.5106513677        0.4661454916
 C          7.3370862223       -1.1240391806       -0.6012455262
 C          5.9960390409       -0.8913254558       -0.8022549454
 C          5.2771205993       -0.0294726080        0.0381947616
 C          3.8605637221        0.2208449984       -0.1872718679
 C          3.3853345946        1.5645925980       -0.3223469019
 C          4.2551077943        2.6578128993       -0.3239692761
 C          3.7790190829        3.9660573284       -0.3589269922
 C          2.4210038879        4.1995440384       -0.3804384669
 C          1.5351141608        3.1272309028       -0.4452043854
 C          1.9894606726        1.8067728273       -0.4841602441
 C          1.0898841254        0.7069090288       -0.6508230218
 C         -0.3255332836        0.9414636395       -0.8925369699
 C         -0.7565161122        1.7766069779       -1.9333649902
 C         -2.0977695804        1.9502230435       -2.2112379402
 C         -3.0382612840        1.2816257420       -1.4394447517
 C         -2.6178189062        0.4587537535       -0.3818621199
 C         -1.2855835979        0.2888683431       -0.1039194382
 C         -3.8032498631       -0.2202849670        0.2755264903
 C         -3.5921014378       -1.7087445602        0.0695705009
 C         -4.0816912605       -2.3506393588       -1.0600870324
 C         -3.7980360711       -3.6862870917       -1.2866071412
 C         -3.0119873673       -4.3940134239       -0.3943150795
 C         -2.5142811424       -3.7587049993        0.7307436605
 C         -2.8011384200       -2.4258195236        0.9607300968
 C         -4.0059180572        0.1507111081        1.7289161729
 C         -4.7844316152       -0.6553901445        2.5515018122
 C         -5.0262605298       -0.2929736324        3.8638995150
 C         -4.4978173348        0.8821767335        4.3705333584
 C         -3.7291769669        1.6935702258        3.5546305831
 C         -3.4879545244        1.3328690207        2.2406172981
 C         -4.9555503557        0.3528688369       -0.5263694810
 C         -6.3060083714        0.1254733683       -0.3758602007
 C         -7.1906487952        0.7792918772       -1.2237798309
 C         -6.7285208807        1.6475439295       -2.2017952309
 C         -5.3730333757        1.8850377072       -2.3556817061
 C         -4.4848494253        1.2352515931       -1.5123819653
 C          1.5756966639       -0.6389718937       -0.5779217023
 C          0.7493716141       -1.7393058060       -0.8223597709
 C          1.2011836562       -3.0440125304       -0.6423412633
 C          2.4926446946       -3.2700591044       -0.2182626672
 C          3.3603265164       -2.1945471903       -0.0454266593
 C          2.9483380757       -0.8793259325       -0.2746784973
 C          5.9576613099        0.5837633986        1.0995849900
 C          7.2946205006        0.3436363261        1.3190044318
 H          7.8865052921       -1.7756860320       -1.2650424535
 H          5.4907239632       -1.3491519422       -1.6402063698
 H          5.3211975106        2.4915543984       -0.3032367624
 H          4.4787980041        4.7880388637       -0.3528537575
 H          2.0366742924        5.2083663120       -0.3637879423
 H          0.4741811263        3.3236898969       -0.4605834924
 H         -0.0147612361        2.2512327539       -2.5594380491
 H         -2.4068561135        2.5803873252       -3.0319646749
 H         -0.9647662763       -0.3219511653        0.7265961509
 H         -4.6874085840       -1.8041378832       -1.7683344221
 H         -4.1895421426       -4.1732698299       -2.1678433741
 H         -2.7877847307       -5.4350936655       -0.5748281118
 H         -1.8968470359       -4.3012247967        1.4319378407
 H         -2.4131867713       -1.9402006555        1.8445507586
 H         -5.1940358345       -1.5777640441        2.1650329041
 H         -5.6303272087       -0.9304690374        4.4930666350
 H         -4.6860283078        1.1644852310        5.3958145708
 H         -3.3158358130        2.6138701577        3.9409110040
 H         -2.8914703299        1.9749989951        1.6087937384
 H         -6.6732843035       -0.5479381472        0.3841213804
 H         -8.2521234388        0.6096346432       -1.1192791145
 H         -7.4357105207        2.1448076505       -2.8495208139
 H         -5.0151174058        2.5630889157       -3.1161178523
 H         -0.2633600982       -1.5861732516       -1.1619288414
 H          0.5254409023       -3.8665470482       -0.8224571260
 H          2.8450064083       -4.2737546172       -0.0340577811
 H          4.3708592902       -2.3869568798        0.2811437748
 H          5.4094458618        1.2255822456        1.7738344171
 H          7.8062002689        0.8071717478        2.1500089036
