73
 xtb: 6.7.1 (edcfbbe)
C           -1.51695143257933        4.99513522632151       -0.09177706634730
C           -0.81823786283239        3.67499513234735       -0.07842720846697
C            0.57835801481701        3.61350663674526       -0.10619334554495
C            1.23606349929974        2.40836984223306       -0.08212430328421
C            0.51869903666931        1.20235202228839       -0.02516979710822
C           -0.88466432856608        1.25142992568955       -0.01588316998845
C           -1.52284659927990        2.48279938632659       -0.03796994053901
C           -1.72668109518633        0.00303560208040        0.00396778387914
C           -2.57944141708649       -0.01226253774531       -1.25850340799433
C           -1.92254329907757       -0.02489817644487       -2.47585790401808
C           -2.62317966017463       -0.04206159058250       -3.67247771406177
C           -4.01389108444706       -0.04649582114848       -3.64858028568164
C           -4.68238798282377       -0.03288789209941       -2.45021463206765
C           -3.98154887205100       -0.01484804075457       -1.22502981297231
C           -4.73879535526117        0.00096866978677        0.00328868760493
O           -6.01250779869635       -0.00140455706734        0.00284202039311
C           -3.98218621640964        0.02014092996827        1.23196207365049
C           -4.68361563712825        0.03847167497815        2.45677290496046
C           -4.01568605576537        0.05600700001663        3.65540004280900
C           -2.62497411359233        0.05556209838598        3.67988864646498
C           -1.92377806649603        0.03770818755547        2.48360563991604
C           -2.58011241245202        0.02107722805364        1.26598483441978
C           -0.89017025541955       -1.24902688299838        0.02445596185628
C           -1.53444006047679       -2.47789099899674        0.04385871291064
C           -0.83558021036402       -3.67258170554256        0.08327353129333
C           -1.53407710030658       -4.99258137900046        0.13407621218228
C            0.56197438323515       -3.61760221602031        0.11311620867608
C            1.22522177683661       -2.41606043378604        0.09172650295168
C            0.51307480492984       -1.20641603817899        0.03647298428903
N            1.18302467489681       -0.00365756473730        0.00684729668231
C            2.60994862341789       -0.00597501483721        0.01107149285512
C            3.31140150913976       -0.25851333811234       -1.16064537798152
C            4.69225890638092       -0.25404982167594       -1.14763647390432
C            5.41272393641271       -0.00086182952875        0.01897792630939
C            6.93226730558688       -0.00310461448164       -0.02497395824722
C            7.56267028697222        0.29996834164373        1.33761352537687
C            7.40291389121118        1.06827939983973       -1.02034758217925
C            7.41651205863195       -1.38749597381135       -0.48165920726786
C            4.69031323486418        0.24669394594038        1.18129156246081
C            3.30602589721671        0.24578706737886        1.18362476434810
H           -1.16277400896188        5.60374805276323       -0.92709788747524
H           -1.30943664575702        5.53871113217609        0.82470102040406
H           -2.59270637398252        4.86502115170520       -0.18735221276030
H            1.14760002666949        4.52962985442637       -0.15232869594057
H            2.31368352258278        2.38602067102368       -0.11103949749545
H           -2.60361737553229        2.49609884380303       -0.02842529272415
H           -0.84074221053745       -0.02298546246386       -2.49011785614892
H           -2.09008981040431       -0.05529422552834       -4.61048055629445
H           -4.57241724372831       -0.06363226161059       -4.57309766186354
H           -5.76207093381549       -0.03713879967472       -2.40152880916440
H           -5.76373089963094        0.03944321804303        2.40845315400715
H           -4.57557654420197        0.07283518011197        4.58075418585645
H           -2.09325492557228        0.07166303844092        4.61976387734478
H           -0.84245032702353        0.03798315851607        2.50027736081580
H           -2.61418993052601       -2.48685025237666        0.03218147114382
H           -1.20803652823483       -5.61075333198259       -0.73651990633775
H           -1.29234831953422       -5.53219921943479        1.03768254161611
H           -2.62274767761447       -4.85325342479763        0.05485265499870
H            1.12779190357879       -4.53665291189851        0.16196044948920
H            2.30347411951658       -2.39761100337753        0.12709093183524
H            2.77149233965858       -0.45842909126985       -2.07279447298799
H            5.21062201276452       -0.45364382759496       -2.07085239107670
H            7.27273562236774        1.28851015391933        1.69247004979106
H            7.28242469041953       -0.44337059965879        2.07728759956092
H            8.64718846540338        0.28739871812819        1.24361628146787
H            7.04736465636615        0.85886940037594       -2.02759758621184
H            8.48991663777968        1.09848800732109       -1.04701541667971
H            7.03660445778500        2.04703162076200       -0.72506045717946
H            8.50336215464314       -1.41245746835453       -0.50383080578965
H            7.04909049862981       -1.63367959057186       -1.47163091684178
H            7.07118897832885       -2.15452868223601        0.21281447205711
H            5.19719183715529        0.44874500595806        2.11121709858610
H            2.76371987287801        0.44466120336762        2.09752951632610
