  110
 
 C         -4.6118918783        5.5442390922        3.0574961389
 C         -3.2012247283        4.9999454803        3.2987623174
 C         -3.0545825722        4.7034421507        4.7980623146
 C         -2.1956715278        6.0826824957        2.8813641161
 C         -2.9212392414        3.7302571230        2.5095239250
 C         -1.6642133732        3.1229358803        2.6280830444
 C         -1.3176099953        1.9751063283        1.9444825794
 C         -2.2611747807        1.4116585184        1.0986782551
 C         -3.5445359747        1.9869552945        0.9832661849
 C         -3.8662180395        3.1408791336        1.6821578822
 C         -4.2897637677        1.1443629072        0.0858264825
 C         -5.5829327656        1.2022602969       -0.4123749304
 C         -6.0246790887        0.2279217166       -1.2960578604
 C         -7.4333784604        0.2181121423       -1.8688601864
 C         -7.3566323807        0.3209932685       -3.3988924377
 C         -8.2858049694        1.3821495187       -1.3561145584
 C         -8.1261728866       -1.0926109829       -1.4695102380
 C         -5.1321575284       -0.7816472081       -1.6801258722
 C         -3.8401549725       -0.8590422369       -1.2029172877
 C         -3.4201913234        0.1002064295       -0.2945242140
 N         -2.1947136496        0.2742289453        0.3170894877
 C         -1.0930411112       -0.5841954670        0.2227027774
 C         -1.2599906513       -1.9475232197        0.4426264652
 C         -0.1565663478       -2.8011541822        0.3986866269
 C         -0.2535232724       -4.2503865440        0.6968072271
 O          0.6778879947       -4.8007363853        1.3302397890
 C         -1.4008905566       -4.9609072897        0.2375323464
 C         -1.6150534731       -6.3053176673        0.6673843976
 N         -2.6359595738       -6.9971411866        0.2762280349
 C         -3.5156473697       -6.4813534829       -0.5782362686
 N         -3.3647454794       -5.2691317972       -1.1070993469
 C         -2.3506969645       -4.5418158568       -0.7302751615
 C          1.1113637798       -2.2665622484        0.1718226954
 C          1.2773510202       -0.9032782346       -0.0296948977
 N          2.5560352382       -0.3879297395       -0.2577061008
 C          2.9158570354        0.4839562195       -1.2656677934
 C          2.1605996213        1.0303100271       -2.2927878691
 C          2.7937782829        1.8701704466       -3.1866851768
 C          4.1570958766        2.1819099570       -3.1043678280
 C          4.7590367898        3.1253134147       -4.1342720217
 C          6.2530327970        3.3707531031       -3.9058641587
 C          4.5839885869        2.5201800374       -5.5344811980
 C          4.0373426884        4.4784913594       -4.0579101320
 C          4.9083066726        1.6061983051       -2.0892160345
 C          4.2975751737        0.7588713986       -1.1775878558
 C          4.7917064325        0.0068990404       -0.0539990997
 C          6.0465524065       -0.1135443464        0.5237713365
 C          6.2147380313       -0.9224743562        1.6389671800
 C          7.5627320233       -1.1127355195        2.3166556970
 C          8.6839016098       -0.3284247631        1.6291967637
 C          7.4678934795       -0.6323491082        3.7719256819
 C          7.9333342701       -2.6023549739        2.2833037959
 C          5.0950322406       -1.5831256216        2.1620029212
 C          3.8347687398       -1.4789318171        1.6093743228
 C          3.6862224167       -0.6899364449        0.4778716208
 C          0.1717555663       -0.0561712083       -0.0206839506
 H         -4.7529107611        6.4536685719        3.6380563460
 H         -4.7629497733        5.7893191187        2.0086862910
 H         -5.3673249007        4.8271967569        3.3703278214
 H         -2.0474606559        4.3778933651        5.0426232289
 H         -3.7476688982        3.9191688758        5.0953279627
 H         -3.2737986184        5.5966640617        5.3791617517
 H         -1.1738322340        5.7785683303        3.0898481916
 H         -2.3930033641        7.0051868764        3.4232105277
 H         -2.2807728282        6.2834381870        1.8153133639
 H         -0.9257069417        3.5589048496        3.2830472714
 H         -0.3448333929        1.5279462042        2.0818181002
 H         -4.8539439870        3.5550501684        1.5687776752
 H         -6.2207597168        2.0123513738       -0.1007827324
 H         -6.8418974664        1.2347646262       -3.6889894211
 H         -8.3583942689        0.3396015747       -3.8227741728
 H         -6.8224477304       -0.5219221437       -3.8278793878
 H         -8.3904455626        1.3439706493       -0.2742597305
 H         -9.2811661203        1.3207290451       -1.7913810404
 H         -7.8545049364        2.3391747933       -1.6408150742
 H         -7.5962500226       -1.9573693962       -1.8584200723
 H         -9.1419890704       -1.1122793313       -1.8585420076
 H         -8.1697395745       -1.1792543072       -0.3857754625
 H         -5.4539524731       -1.5377365366       -2.3790347075
 H         -3.1798644382       -1.6417917151       -1.5412475158
 H         -2.2353551266       -2.3191395025        0.7170281277
 H         -0.8973551056       -6.7524479266        1.3431075376
 H         -4.3657284733       -7.0733655651       -0.8703285900
 H         -2.2337450942       -3.5909977270       -1.2348675888
 H          1.9587694570       -2.9327743302        0.1342162841
 H          1.1124938804        0.7990299117       -2.4070785468
 H          2.2011686442        2.2946689595       -3.9823726112
 H          6.6270035459        4.0561922334       -4.6636949344
 H          6.4316908345        3.8189261537       -2.9311393218
 H          6.8185784763        2.4451388101       -3.9838063079
 H          3.5346766500        2.3872142604       -5.7822236613
 H          5.0723081057        1.5493441142       -5.5877417516
 H          5.0298840858        3.1726005370       -6.2821987683
 H          4.4687177075        5.1733104644       -4.7753166299
 H          2.9782313445        4.3778121506       -4.2776242776
 H          4.1398601459        4.9031766906       -3.0613570095
 H          5.9637590033        1.7967515803       -1.9909902335
 H          6.8695236105        0.4305836020        0.0915657609
 H          8.8085947477       -0.6471627568        0.5968806593
 H          9.6222043983       -0.5067966287        2.1505092335
 H          8.4860063221        0.7408200966        1.6527515441
 H          8.4316494264       -0.7411462218        4.2647984507
 H          7.1801621048        0.4166013966        3.8036797379
 H          6.7337082866       -1.2039608146        4.3323592933
 H          7.2017409301       -3.2062219909        2.8123191746
 H          7.9847426239       -2.9535795792        1.2547973085
 H          8.9038757097       -2.7568859018        2.7500136525
 H          5.2078640542       -2.2038014744        3.0371200156
 H          2.9980628822       -1.9963760420        2.0522454625
 H          0.2950413346        1.0038450476       -0.1763969771
