  42
 
 C          4.9873641859        0.8503727021        0.7036995801
 C          4.9935158799       -0.1230601773       -0.2832544429
 C          3.8369723467       -0.8131440668       -0.5881282479
 C          2.6417593807       -0.5307938745        0.0779336389
 C          1.4212473042       -1.2799241430       -0.2050799478
 C          1.4996779807       -2.6614823873       -0.3108682274
 C          0.3678951283       -3.4491562902       -0.3188710870
 C         -0.9100016349       -2.8756360237       -0.1443596417
 C         -2.0563234110       -3.6723123724       -0.0469814311
 C         -3.3062756240       -3.0898330143        0.1255961703
 C         -3.4329772266       -1.7263854410        0.2146065409
 C         -2.3041978126       -0.8735724096        0.1265867010
 C         -2.4105302684        0.5446061035        0.2303481633
 C         -3.6009184234        1.1949311867        0.6425190368
 C         -3.6968789727        2.5655083062        0.6506969222
 C         -2.6311052660        3.3507805506        0.2349681303
 C         -1.4227638797        2.7581199471       -0.1656936413
 C         -0.3395369177        3.5383581763       -0.6111622783
 C          0.8240052605        2.9319847383       -1.0627693328
 C          0.9748192383        1.5690724715       -0.9929277300
 C         -0.0448802876        0.7435312613       -0.4410071195
 C          0.1269956670       -0.6493150696       -0.2314831959
 C         -1.0281159812       -1.4587036576       -0.0769437258
 C         -1.2945639944        1.3404164878       -0.1259885290
 C          2.6514637993        0.4486545227        1.0781389530
 C          3.8130241077        1.1277184642        1.3855662021
 H          5.8936414172        1.3872902068        0.9413326161
 H          5.9056425869       -0.3420291615       -0.8195623774
 H          3.8444477071       -1.5545642642       -1.3742807437
 H          2.4725760094       -3.1320180646       -0.3194938536
 H          0.4521428925       -4.5236990805       -0.3859824656
 H         -1.9595273808       -4.7454365094       -0.1201747682
 H         -4.1838681405       -3.7172178721        0.1863273542
 H         -4.4159561452       -1.2992818101        0.3284337533
 H         -4.4429619736        0.6097064683        0.9744223319
 H         -4.6127070095        3.0374595991        0.9766335543
 H         -2.7159756029        4.4273428894        0.2261193849
 H         -0.4461007884        4.6124657774       -0.6434199055
 H          1.6161566897        3.5369826805       -1.4796766414
 H          1.8584907197        1.1110409171       -1.4049679427
 H          1.7437751695        0.6542722857        1.6261979278
 H          3.8045978540        1.8774720540        2.1632606044
