  68
 
 N          0.2866218572        6.5845769133       -0.3166185808
 C         -0.1431242396        5.5236209046       -0.2594571339
 C         -0.6709452072        4.2137146848       -0.1894516865
 C         -0.3035031801        3.3707012241        0.8603921018
 C         -0.8141223736        2.0910421078        0.9238933169
 C         -1.6933143831        1.6419965844       -0.0594541564
 N         -2.1573249164        0.3194817656       -0.0179932912
 C         -1.3379341513       -0.7940670860       -0.0433749525
 C          0.1135018605       -0.7282419029       -0.0987561406
 C          0.7880147789        0.1911719106       -0.9009878297
 C          2.1661719963        0.2393065111       -0.9013455746
 C          2.9014804129       -0.6262073484       -0.0938748261
 N          4.2953980496       -0.5380869429       -0.0619184999
 C          5.1844147847       -1.5905216860       -0.1791046644
 C          4.9377351716       -2.9347809952       -0.4172708079
 C          6.0251435573       -3.7814090588       -0.5204058407
 C          7.3299234807       -3.3087221111       -0.4007392775
 C          7.5821778768       -1.9676742566       -0.1915146560
 C          6.5055928535       -1.0973798563       -0.0842797234
 C          6.4004899215        0.3227435121        0.1052615826
 C          7.3359921500        1.3338588112        0.2799687546
 C          6.8868353268        2.6261843132        0.4646755518
 C          5.5241902781        2.9131652984        0.4937118617
 C          4.5748043725        1.9235549106        0.3229197334
 C          5.0204066177        0.6270872298        0.1091929482
 C          2.2316966922       -1.5731840034        0.6794288399
 C          0.8542305899       -1.6281773584        0.6671219684
 N         -2.0204472788       -1.9067338492       -0.0216794360
 C         -3.3313546577       -1.5449659197        0.0130329000
 C         -4.4706893543       -2.3966672280        0.0029643713
 C         -4.3349555904       -3.7874402349       -0.0591627645
 C         -5.4472429331       -4.5898297043       -0.1067905575
 C         -6.7128379808       -4.0065111080       -0.0972094195
 C         -6.8576078936       -2.6405901706       -0.0296165042
 C         -5.7455407253       -1.7866454564        0.0311375214
 C         -5.8642232858       -0.3433056758        0.1438218120
 C         -7.1121399658        0.2840807814        0.2670969193
 C         -7.2331013653        1.6440326348        0.4268837040
 C         -6.0963053217        2.4432959636        0.4916705824
 C         -4.8553900688        1.8698057885        0.3651277805
 C         -4.7111380081        0.4890849440        0.1670925312
 C         -3.4506915320       -0.1572168224        0.0284049645
 C         -2.0616222958        2.4844963375       -1.1083332344
 C         -1.5564102449        3.7658965937       -1.1721802427
 H          0.3775678996        3.7261362335        1.6189825900
 H         -0.5363071674        1.4294999049        1.7305090402
 H          0.2378082139        0.8528851479       -1.5532903817
 H          2.6835492261        0.9378593868       -1.5414155657
 H          3.9319722747       -3.3093421710       -0.5328565030
 H          5.8589049763       -4.8329566023       -0.7019951747
 H          8.1525609219       -4.0031589749       -0.4840721898
 H          8.5934413974       -1.5973662437       -0.1170158046
 H          8.3915655675        1.1080023594        0.2750859224
 H          7.5975173601        3.4278896845        0.5986695804
 H          5.2014561774        3.9309897213        0.6558502860
 H          3.5209255510        2.1555340890        0.3660045306
 H          2.7976770648       -2.2459039985        1.3056269617
 H          0.3272724081       -2.3553347410        1.2648314402
 H         -3.3368824191       -4.1967259329       -0.0762403361
 H         -5.3481581539       -5.6639656701       -0.1571762221
 H         -7.5912606379       -4.6338482497       -0.1432163763
 H         -7.8568227672       -2.2350683984       -0.0283309225
 H         -8.0129917096       -0.3074389617        0.2492353436
 H         -8.2118180771        2.0909947375        0.5188750928
 H         -6.1876662411        3.5080974175        0.6464479317
 H         -3.9769753150        2.4913435713        0.4411341630
 H         -2.7413625101        2.1235956912       -1.8661604059
 H         -1.8348327158        4.4237400499       -1.9817609447
