  85
 
 C         -0.2072407131        4.8537579928        0.5368774773
 C         -0.6244491464        4.0940506927       -0.7348823850
 C         -1.8321676937        4.7824845740       -1.3768312194
 C         -0.8855708536        2.6515037093       -0.4223988361
 C         -2.0440362548        2.2107679720        0.2229256937
 C         -2.2923119622        0.8792191474        0.4715452472
 C         -3.3722811104        0.5982898156        1.5068278152
 C         -4.7809179530        0.9815465401        1.0223440780
 C         -3.4126956337       -0.8047274705        2.1108448362
 C         -1.4735500099       -0.1423335318       -0.1917916246
 C         -2.0830487175       -1.4064794773       -0.4926378895
 C         -3.4062358854       -1.4450737574       -0.9865607995
 C         -4.0278843767       -2.6323181833       -1.2964490972
 C         -3.3746488836       -3.8434699105       -1.0988421023
 C         -2.0766102018       -3.8335408633       -0.6040177900
 C         -1.4392779670       -2.6469464536       -0.3212038143
 C         -0.1511141592        0.2378042655       -0.7779857786
 C         -0.1873763829        0.1135227889       -2.3441182951
 C         -1.3621200396        0.8910743868       -2.9335788004
 C         -0.1855329200       -1.3053805487       -2.9037139999
 P          1.3079445450       -0.9324153211       -0.1793369199
 C          2.8441197665       -0.1446875307       -0.9785208666
 C          3.6569713813        0.8977548403       -0.2136569750
 C          4.7959784025        1.4128340135       -1.0951330619
 C          5.7114904966        0.2683445983       -1.5181834459
 C          4.9133684696       -0.8008061749       -2.2582442909
 C          3.7611842718       -1.3025294193       -1.3921902813
 C          1.5551325438       -0.4712284173        1.6342435378
 C          0.2556652490       -0.5268226136        2.4287920731
 C          0.5135822866       -0.2334308900        3.9051491294
 C          1.5064898120       -1.2351319632        4.4871925284
 C          2.8067823172       -1.2125175796        3.6897901914
 C          2.5334848520       -1.4975106839        2.2153950304
 C          0.2453418265        1.6863159773       -0.4465981756
 H          0.0003995925        5.8957096971        0.3022830960
 H          0.6869755713        4.4114928995        0.9700973801
 H         -1.0036888372        4.8162526323        1.2766481541
 H          0.2130720658        4.1462131351       -1.4423313319
 H         -2.1586625778        4.2411733520       -2.2625784050
 H         -2.6657228636        4.8358355096       -0.6812139828
 H         -1.5699285561        5.7970134540       -1.6703663826
 H         -2.7427250637        2.9487259936        0.5951853675
 H         -3.1389519200        1.2852557264        2.3347920406
 H         -5.4549748798        1.0449315891        1.8748799079
 H         -5.1758615791        0.2334823037        0.3409254564
 H         -4.7771495869        1.9434800077        0.5154124406
 H         -3.8503461303       -1.5250383374        1.4266311350
 H         -4.0228874105       -0.7834716839        3.0130386004
 H         -2.4190365765       -1.1473103154        2.3800177758
 H         -3.9124309923       -0.5106583674       -1.1772420324
 H         -5.0318673461       -2.6223979086       -1.7002906812
 H         -3.8681838515       -4.7761220855       -1.3294852651
 H         -1.5598888773       -4.7689030602       -0.4380789970
 H         -0.4369323851       -2.6662602453        0.0796710822
 H          0.7261450181        0.5959815209       -2.7085854925
 H         -1.4034671272        1.8980380622       -2.5229761174
 H         -1.2528006762        0.9589852754       -4.0146911288
 H         -2.3017430085        0.3919666576       -2.7140343471
 H          0.5913451152       -1.9089331673       -2.4374262363
 H          0.0097489314       -1.2648356079       -3.9744680524
 H         -1.1415873559       -1.7962134171       -2.7531183093
 H          2.4885060738        0.3192562862       -1.9051368346
 H          4.0886617040        0.4550183055        0.6856460086
 H          3.0334745875        1.7415662277        0.0856998166
 H          5.3694467184        2.1651736932       -0.5477168632
 H          4.3812752689        1.8929983660       -1.9855736530
 H          6.5124332323        0.6471675141       -2.1574364843
 H          6.1729159515       -0.1729057091       -0.6309699594
 H          4.5125615395       -0.3788209650       -3.1836982137
 H          5.5652734944       -1.6352568753       -2.5272733578
 H          3.1831033698       -2.0489825458       -1.9437863928
 H          4.1641969805       -1.7930247974       -0.5027523943
 H          1.9919562527        0.5273649708        1.7361250774
 H         -0.4599193206        0.1964065277        2.0325360137
 H         -0.1812174667       -1.5241822735        2.3294402696
 H          0.9149117854        0.7784193900        4.0091015730
 H         -0.4276251828       -0.2765926257        4.4581152557
 H          1.7056900882       -0.9992675773        5.5352627484
 H          1.0740397952       -2.2379199694        4.4457425103
 H          3.5018605294       -1.9564418918        4.0866815063
 H          3.2762017629       -0.2300102843        3.7893262718
 H          2.1034863398       -2.4980516917        2.1118027100
 H          3.4735109976       -1.4872653390        1.6597685070
 H          0.6863789485        1.6945995516        0.5596087957
 H          1.0189959969        2.0250227424       -1.1375539887
