  80
 
 C          7.0890398854       -3.8489114687       -0.8090864423
 C          6.0331895961       -3.3179829345       -1.5328041194
 C          5.5584812611       -2.0513251181       -1.2524814717
 C          6.1322376280       -1.2946991727       -0.2301317502
 N          5.6510726771       -0.0116931432        0.0577209453
 C          6.5334206354        1.0030184237        0.4436821436
 C          6.1563248247        1.9398631697        1.4067272063
 C          7.0274383101        2.9455027938        1.7793872655
 C          8.2876564078        3.0303055064        1.2098721138
 C          8.6688139808        2.1006968161        0.2552681014
 C          7.8011551614        1.0978284272       -0.1317365973
 C          4.2764129679        0.2497488970       -0.0091870573
 C          3.8220332135        1.4862687663       -0.5138746679
 C          2.4847219094        1.7497688186       -0.5927274022
 C          1.5201022264        0.8084237734       -0.1882450989
 C          1.9669930133       -0.4602777526        0.3239614583
 C          3.3549839518       -0.6880252796        0.4004725528
 C          1.0856108324       -1.4819940654        0.7821219854
 C         -0.2703956088       -1.2718748145        0.7079015336
 C         -1.5475503428       -1.8891552207        1.0279274676
 C         -1.8600599376       -3.1048473983        1.6112108081
 C         -3.1937311076       -3.4345284222        1.7864881793
 C         -4.1953864679       -2.5976449586        1.3242243155
 C         -3.9160914747       -1.3752636752        0.7105415566
 N         -4.9702105112       -0.6188039626        0.1538891058
 C         -4.9620382571       -0.3431357659       -1.2146756524
 C         -4.1133931558       -1.0338605388       -2.0807418540
 C         -4.0759089453       -0.7194480031       -3.4259267125
 C         -4.8883884119        0.2757638667       -3.9407924631
 C         -5.7417016821        0.9594854422       -3.0896812162
 C         -5.7781420569        0.6614403404       -1.7427251834
 C         -6.1186142425       -0.4499990599        0.9426552333
 C         -5.9688279375       -0.0824096790        2.2799210267
 C         -7.0782403282        0.0819675925        3.0866555613
 C         -8.3509207374       -0.1143248796        2.5752854482
 C         -8.5045625480       -0.4894609981        1.2503012717
 C         -7.4003753637       -0.6635151062        0.4374795535
 C         -2.5815868140       -0.9836984716        0.6301109105
 N         -1.9874393815        0.1774308023        0.1417533620
 C         -2.1589740854        1.4933138340       -0.2641748068
 C         -3.2978854343        2.2731098800       -0.3373906295
 C         -3.1716776010        3.5823447538       -0.7677235826
 C         -1.9324490465        4.1154924409       -1.1024628998
 C         -0.7788020889        3.3625435959       -0.9861448402
 C         -0.8677042064        2.0466149958       -0.5528108040
 C          0.1208813706        1.0311418283       -0.2485237572
 C         -0.6412129111       -0.0349776727        0.1722416432
 C          7.1909954089       -1.8365033378        0.4989386624
 C          7.6645331318       -3.1010521464        0.2054836671
 H          7.4597852564       -4.8378171881       -1.0337429325
 H          5.5802901005       -3.8913459675       -2.3288223015
 H          4.7401759831       -1.6377989190       -1.8239680431
 H          5.1787216631        1.8702442536        1.8615983939
 H          6.7223776814        3.6627597555        2.5276758451
 H          8.9672763085        3.8148125346        1.5072760655
 H          9.6470153909        2.1623345244       -0.1994715258
 H          8.0976982250        0.3814093295       -0.8841492472
 H          4.5459777988        2.2167424242       -0.8441072212
 H          2.1475442520        2.6951033305       -0.9881444658
 H          3.7014386697       -1.6349201293        0.7902854683
 H          1.5116245051       -2.3897645088        1.1822854497
 H         -1.0749348850       -3.7773295313        1.9200105088
 H         -3.4615105207       -4.3703808499        2.2530809627
 H         -5.2292863142       -2.8975799966        1.4147614945
 H         -3.4844622348       -1.8259224495       -1.7013924957
 H         -3.4089356025       -1.2659255732       -4.0772706815
 H         -4.8580644503        0.5164273151       -4.9927470325
 H         -6.3800654082        1.7407539837       -3.4763037649
 H         -6.4367758486        1.2159875377       -1.0901389248
 H         -4.9760170142        0.0707277609        2.6784820262
 H         -6.9474925902        0.3708709236        4.1193402219
 H         -9.2168840776        0.0190631392        3.2061271339
 H         -9.4923466326       -0.6599437338        0.8471049909
 H         -7.5251839461       -0.9763593748       -0.5889691587
 H         -4.2591475846        1.8815410707       -0.0530955692
 H         -4.0539003831        4.2016420150       -0.8348992588
 H         -1.8689348754        5.1401156431       -1.4385550790
 H          0.1800297869        3.8004090548       -1.2175405121
 H          7.6362214324       -1.2601880497        1.2970333481
 H          8.4839356072       -3.5083310434        0.7800862346
