70
 xtb: 6.7.1 (edcfbbe)
C            1.12927792857512        1.80197555197358        4.35596737094749
C            0.89829707214261        0.57177994496772        3.48301305032097
C            2.16986578648716        0.15459337569643        2.74803219380741
C            1.91025946967404       -1.02704301303692        1.81403897264995
O            3.06312221156636       -1.41730419043111        1.08855128729372
C            3.64681082233299       -0.55262031789166        0.19795763275469
C            5.03682156336602       -0.64525056336354        0.12771781793072
C            5.76737755172215        0.14170810629555       -0.73942203676351
C            5.11406616422709        1.05792886016280       -1.54853032478436
C            3.73851266208591        1.15305359393977       -1.49176341666989
C            2.97432138579142        0.34883774436347       -0.64245899135432
C            1.50946957716964        0.47951663244735       -0.71842232125811
C            0.88230863045429        1.67586734542116       -0.26068395895783
C            1.61950630057951        2.71231380477915        0.31920913662015
C            0.99496515210777        3.84379873059791        0.84564507464535
C           -0.37821428427838        3.94004098181613        0.82311294290916
C           -1.13875294477666        2.91877992497234        0.25038882840690
C           -0.53936884857587        1.79599540460076       -0.32599867377628
C           -1.30986460023903        0.74994365502903       -0.91995324312123
C           -2.76620421217355        0.87551132976482       -0.99841629098160
C           -3.35567987610186        1.92092737029682       -1.70531506648627
C           -4.72991113969503        2.04132766239425       -1.79663328094151
C           -5.53947922811723        1.11538951336141       -1.16265321347294
C           -4.98061360688858        0.07355318872251       -0.43867241523590
C           -3.60087041025839       -0.06018464171391       -0.34755828184677
O           -2.96224427238186       -1.02391450863941        0.37310200747355
C           -3.72994774322781       -1.98970747765321        1.06557470494838
C           -2.76926899548991       -2.98627353077518        1.70696770105299
C           -2.04883631017929       -3.83470593646347        0.66100417811621
C           -1.07091397596608       -4.81489640549796        1.29635765360708
C           -0.66952626880092       -0.40646317201025       -1.45960966267800
C           -1.38038312243975       -1.37727193703120       -2.16892011180264
C           -0.74881279042094       -2.50815900919151       -2.68886012250524
C            0.60962566876112       -2.67187742181890       -2.53004258252734
C            1.35407682684964       -1.69247115439779       -1.87236832650407
C            0.74406594314754       -0.55582795941374       -1.33627228210488
H            1.53624602878019        2.59786141710530        3.84589086687999
H            1.97389540153353        1.50902682024386        5.16518727511935
H            0.29766156695229        2.02704160821827        4.96535894752220
H            0.15389711478682        0.80067933048864        2.81199443870189
H            0.58859731417055       -0.29439905739917        4.12718527667468
H            2.98396677976688       -0.15499429831175        3.45847774385227
H            2.55681749805804        0.98603099533562        2.17934665704063
H            1.07603412961507       -0.76731788162637        1.14905109660350
H            1.63781206621071       -1.92270969472499        2.37830923792894
H            5.51346869080707       -1.36259465594921        0.77154822827985
H            6.83686103080906        0.05351292553441       -0.76759898418522
H            5.67080729110795        1.70634578749335       -2.20608525823568
H            3.21649236711953        1.86412227466290       -2.12502744991480
H            2.68481364352143        2.64207304535860        0.36531444361576
H            1.58079933037335        4.64039111043317        1.26485932538441
H           -0.89078562135226        4.81196461446972        1.21682373376048
H           -2.22493116704847        3.00626011701932        0.23103260789197
H           -2.71980534777577        2.61969115814144       -2.23537560101266
H           -5.17208633476112        2.83659998111771       -2.39341007024530
H           -6.61965962345728        1.18987928917729       -1.24657036533116
H           -5.63715230542259       -0.62676565592587        0.04858347902338
H           -4.34289705555534       -1.48654350687602        1.83466967212984
H           -4.39857348843143       -2.50918733640753        0.36965530352716
H           -2.04138477518542       -2.41255817023732        2.30180648767500
H           -3.33993367877578       -3.61374534892012        2.38842280203119
H           -2.78190284558203       -4.38106345943471        0.08949055341953
H           -1.51031025586381       -3.16122788749253       -0.01095198316805
H           -0.30689934257116       -4.26111578122107        1.87843995786522
H           -1.58602275325736       -5.47225711144931        1.99236403357775
H           -0.56848519091522       -5.39116939129295        0.55140340960082
H           -2.44180338647224       -1.25459182409530       -2.32788472102959
H           -1.33112309797819       -3.25649986774619       -3.20883789803347
H            1.11097038710952       -3.54880749256239       -2.91347080968077
H            2.42212608936257       -1.81069794985376       -1.77654060211863
