  71
 
 C          1.2740526023        5.6164919888       -1.5827279203
 C          0.4075746965        5.2118749755       -0.3957011048
 C         -0.9814667617        5.8407147323       -0.4726961525
 C         -1.8771567468        5.4217335573        0.7075856760
 C         -2.1546350494        3.9665465333        0.6991205491
 C         -1.6308051631        2.9966977686        1.5381095459
 C         -2.0234731422        1.7131753371        1.2206921757
 C         -2.9087664282        1.6768132127        0.0735092170
 S         -3.1931674171        3.2815456886       -0.5452832090
 C         -3.3424395994        0.4322338081       -0.2643003861
 S         -4.4256326846       -0.1981507557       -1.4761887538
 C         -4.2050202287       -1.8285555431       -0.8537729517
 C         -4.9436483629       -2.9565683794       -1.4666287555
 C         -6.4379521890       -2.9173682851       -1.1005597493
 C         -7.2019917106       -4.0790275983       -1.7299501121
 C         -8.6825890705       -4.0357123656       -1.3695858683
 C         -3.3424385430       -1.8650091909        0.2293665492
 C         -2.8348464946       -0.6311349801        0.5802009307
 P         -1.6850748954        0.0388191147        1.7952655190
 O         -1.8952995277       -0.2848432497        3.2203378046
 C          0.0024360718       -0.3528582857        1.2328450652
 C          0.3935085602       -0.0946838824       -0.0769021993
 C          1.6836753438       -0.3661656860       -0.4789991018
 C          2.6047460191       -0.8910670120        0.4302950861
 N          3.9162507428       -1.1477944441        0.0240458851
 C          4.6220432647       -2.3177087382        0.2433509186
 C          4.2142687811       -3.4977708495        0.8494294563
 C          5.1209782892       -4.5399471960        0.9097183634
 C          6.4007174283       -4.4229253387        0.3722914357
 C          6.8027058261       -3.2604388532       -0.2571620600
 C          5.9095536697       -2.1998673088       -0.3284946289
 C          5.9810023374       -0.8871970824       -0.9112660733
 C          6.9806542382       -0.1953726652       -1.5820362773
 C          6.7261600756        1.0976602105       -1.9973002594
 C          5.5006464570        1.7054378721       -1.7346356683
 C          4.4904564688        1.0360291058       -1.0689806041
 C          4.7299409282       -0.2731927322       -0.6751956450
 C          2.2087814258       -1.1514273063        1.7422243127
 C          0.9125545077       -0.8846366481        2.1363745248
 H          1.3941493148        6.6973792538       -1.6175589567
 H          0.8178881931        5.2920867691       -2.5158101307
 H          2.2603078291        5.1639439895       -1.5062257183
 H          0.8945011203        5.5221269259        0.5321919892
 H          0.3118232359        4.1233968321       -0.3698560967
 H         -1.4664035409        5.5442952725       -1.4052800445
 H         -0.8891571918        6.9283026835       -0.4704385939
 H         -1.3897850947        5.6850117266        1.6484404643
 H         -2.8190776827        5.9726606218        0.6349655954
 H         -0.9744657061        3.2383745917        2.3571102414
 H         -4.8540042030       -2.9089002486       -2.5554354704
 H         -4.5094106413       -3.8969982263       -1.1213355726
 H         -6.5405369490       -2.9559494387       -0.0135097080
 H         -6.8617456974       -1.9709670512       -1.4436663249
 H         -7.0915597823       -4.0376296020       -2.8159170857
 H         -6.7725507911       -5.0231822070       -1.3868491160
 H         -9.1335481292       -3.1091790852       -1.7188710764
 H         -8.8158703035       -4.0956515833       -0.2912704298
 H         -9.2105936716       -4.8689780165       -1.8278387774
 H         -3.0945332862       -2.7821484518        0.7367542474
 H         -0.3223410494        0.3121368991       -0.7770398473
 H          1.9851448044       -0.1898047330       -1.5005349483
 H          3.2189721133       -3.6081679544        1.2522377681
 H          4.8278738997       -5.4667706860        1.3807649475
 H          7.0815955456       -5.2583481729        0.4419198072
 H          7.7882566424       -3.1760671319       -0.6895723630
 H          7.9371743998       -0.6598798436       -1.7681458796
 H          7.4892414312        1.6522977117       -2.5230468043
 H          5.3366747739        2.7241764666       -2.0540451735
 H          3.5528001519        1.5251560855       -0.8533165523
 H          2.9256015968       -1.5381531368        2.4508250230
 H          0.5877943110       -1.0714371490        3.1503208922
