  99
 
 C         -1.2277478077        3.7360497379        0.5332823698
 C         -0.1953176360        4.4159082603       -0.0980719240
 C          0.8053193229        3.7112679417       -0.7443036900
 C          0.7924420286        2.3227582990       -0.7634688106
 N          1.8107850881        1.6202547122       -1.4208675447
 C          3.1584640608        1.7225724816       -1.1477584417
 C          3.8329788481        2.6349941532       -0.3497603302
 C          5.2101006175        2.5423713285       -0.2869535908
 C          5.9043511099        1.5464464976       -0.9688478658
 C          5.2354494806        0.6141010091       -1.7392187546
 C          3.8556683706        0.7057236999       -1.8430990019
 C          2.8688375181       -0.0386557543       -2.5763997459
 C          2.9281792968       -1.1367540943       -3.4222517584
 C          1.7575178616       -1.5888420795       -4.0020810387
 C          0.5467341274       -0.9396704328       -3.7733912447
 C          0.4630919825        0.1570380794       -2.9368925662
 C          1.6260775148        0.5760510657       -2.3054973417
 C         -0.2584257188        1.6315597877       -0.1314008011
 C         -0.3123207503        0.1831882584       -0.1372568801
 N         -1.4624345418       -0.4281791038       -0.2042460273
 C         -1.5114535488       -1.7600150821       -0.3484617308
 C         -2.7593778927       -2.4321904295       -0.4235593398
 C         -2.8198451860       -3.8400139230       -0.4352384535
 C         -4.0239837950       -4.4989283952       -0.4079323538
 C         -5.2198647138       -3.7854636691       -0.3669028771
 C         -5.1882946918       -2.3998488713       -0.3807708152
 C         -3.9845883811       -1.7195434322       -0.4264809384
 N         -3.9956574027       -0.3134330816       -0.4799128874
 C         -3.6596180242        0.4522648902       -1.5756729301
 C         -3.1799474966        0.0466972306       -2.8111706961
 C         -2.9114281825        1.0286482679       -3.7477389206
 C         -3.1159239352        2.3768760329       -3.4640652418
 C         -3.6135835580        2.7825984729       -2.2391240019
 C         -3.8982371737        1.8156539546       -1.2870062769
 C         -4.4248449503        1.8588064152        0.0514207501
 C         -4.8485834592        2.8803992031        0.8877918648
 C         -5.2876016013        2.5559628353        2.1589309853
 C         -5.3062743680        1.2336607153        2.6011392212
 C         -4.8973504594        0.1968377327        1.7852829788
 C         -4.4634281060        0.5163571782        0.5048368386
 N         -0.3558427737       -2.5081003592       -0.3648081705
 C          0.7430067606       -1.8454776987       -0.1460088229
 C          1.9684661854       -2.6196543647        0.1108481420
 C          2.3457081932       -3.6629727963       -0.7207892887
 C          3.5085322525       -4.3684036818       -0.4704989913
 C          4.2876466011       -4.0489951645        0.6301836793
 C          3.9047748203       -3.0304468684        1.4846944241
 C          2.7475430184       -2.3030484138        1.2337682003
 N          2.3570356596       -1.2657800506        2.0924462572
 C          3.0944877448       -0.1245546905        2.3463985304
 C          4.4348636876        0.1323314486        2.1044365118
 C          4.9416323733        1.3510147745        2.5145179894
 C          4.1312534755        2.3108343136        3.1140976562
 C          2.7857167384        2.0748331730        3.3227613304
 C          2.2621712240        0.8454916480        2.9513910272
 C          0.9560233287        0.2546906107        3.0631693366
 C         -0.2694159956        0.7145719447        3.5235644916
 C         -1.3528559124       -0.1433777800        3.4920902237
 C         -1.2122511658       -1.4585279177        3.0565903283
 C         -0.0000498472       -1.9405755962        2.5988211551
 C          1.0700233865       -1.0573398884        2.5530928921
 N          0.8469370234       -0.5178508999       -0.0667853463
 C         -1.2586130071        2.3581470547        0.5118724067
 H         -2.0063403747        4.2821960168        1.0439392731
 H         -0.1713155567        5.4953594352       -0.0929885011
 H          1.5951239509        4.2364193423       -1.2610721635
 H          3.3033733403        3.3902511264        0.2096203196
 H          5.7591027661        3.2599307017        0.3040429267
 H          6.9807829814        1.5039571177       -0.8908517778
 H          5.7728303319       -0.1638543528       -2.2607410567
 H          3.8701404955       -1.6259755113       -3.6203338046
 H          1.7800561361       -2.4488496304       -4.6551638053
 H         -0.3475229045       -1.2994517222       -4.2607068305
 H         -0.4773471125        0.6618830957       -2.7727677597
 H         -1.8855522478       -4.3786547006       -0.4463871942
 H         -4.0465612544       -5.5788790831       -0.4097547657
 H         -6.1657695236       -4.3034097822       -0.3367361387
 H         -6.1080248367       -1.8313399154       -0.3740685060
 H         -3.0147269684       -0.9985291021       -3.0250846911
 H         -2.5312783671        0.7463480300       -4.7186931858
 H         -2.8842993819        3.1142727490       -4.2182551131
 H         -3.7769588117        3.8283097628       -2.0267864021
 H         -4.8327694391        3.9062541274        0.5516495329
 H         -5.6199418102        3.3378733176        2.8256826687
 H         -5.6486810994        1.0179164033        3.6025538246
 H         -4.9079279256       -0.8278411327        2.1248614517
 H          1.7263788794       -3.8940807365       -1.5735385083
 H          3.8069282160       -5.1684574662       -1.1308634921
 H          5.1915659404       -4.6038397883        0.8332409466
 H          4.4891499811       -2.8044864433        2.3641995221
 H          5.0662619966       -0.5898366866        1.6106246892
 H          5.9902126332        1.5602401712        2.3666215240
 H          4.5633438793        3.2532638964        3.4169367331
 H          2.1534137240        2.8231055640        3.7769073577
 H         -0.3730258906        1.7254599142        3.8883413499
 H         -2.3218539189        0.2034329762        3.8201135392
 H         -2.0679578876       -2.1176126050        3.0705149099
 H          0.1015663310       -2.9638024820        2.2690406492
 H         -2.0380684019        1.8120108654        1.0187463250
