45

C      4.757254    0.267222    2.784615
C      4.962546   -0.788617    1.894512
C      4.545973   -0.674590    0.568651
C      3.917608    0.500864    0.145899
C      3.721451    1.566681    1.028258
C      4.140779    1.443168    2.352616
S      3.386957    0.637948   -1.544843
O      2.979673    2.011524   -1.780286
O      4.419631    0.025612   -2.361208
C      1.918131   -0.354262   -1.687194
C      1.939841   -1.536282   -2.430646
C      0.778662   -2.301087   -2.531262
C     -0.395592   -1.883394   -1.898086
C     -0.415957   -0.689755   -1.162934
C      0.746874    0.081259   -1.057820
N     -1.619787   -0.257824   -0.528259
C     -2.107672    1.051555   -0.529118
C     -1.648967    2.225283   -1.165318
C     -2.367536    3.412291   -0.994695
C     -3.526021    3.439035   -0.230852
C     -4.001255    2.269883    0.367236
C     -3.294326    1.056997    0.208212
C     -3.536763   -0.274673    0.654785
C     -4.566471   -0.859540    1.425263
C     -4.514585   -2.218223    1.744165
C     -3.446448   -2.995786    1.318817
C     -2.416795   -2.441056    0.552817
C     -2.488155   -1.076854    0.197862
H      5.085886    0.176550    3.817541
H      5.453220   -1.697377    2.235182
H      4.720112   -1.495219   -0.123559
H      3.250100    2.489808    0.698160
H      3.992173    2.265321    3.048951
H      2.845515   -1.864444   -2.936529
H      0.781419   -3.217734   -3.117281
H     -1.297719   -2.477031   -2.032617
H      0.761318    0.995406   -0.468163
H     -0.765340    2.227481   -1.796871
H     -2.017041    4.322913   -1.475802
H     -4.075534    4.369015   -0.109502
H     -4.920331    2.294426    0.946010
H     -5.395032   -0.252557    1.779440
H     -5.307284   -2.662495    2.340701
H     -3.403935   -4.047914    1.591451
H     -1.576576   -3.063530    0.261702
