  110
 
 O          0.0361851009       -4.8404216184        0.1477336133
 C          0.0173818130       -3.6276838589        0.0961149126
 C         -1.2605165522       -2.8703597622        0.0828226616
 C         -1.3841695526       -1.6197888126        0.6859654966
 C         -2.6018496453       -0.9678282525        0.6866437162
 C         -3.7074774108       -1.5524756585        0.0768669642
 N         -4.9621971047       -0.8714588143        0.0669492273
 C         -5.8312082877       -1.1890571179        1.1090275323
 C         -5.3930646858       -2.0913358861        2.0905433149
 C         -6.2027937072       -2.4541872746        3.1452056936
 C         -7.4797785227       -1.9298484143        3.2643720137
 C         -7.9151677753       -1.0366138956        2.3086517696
 C         -7.1193736271       -0.6522929987        1.2346769286
 Si        -7.7871430175        0.5888126765        0.0022223043
 C         -8.2571413688        2.2125653587        0.8584273408
 C         -7.7430589956        2.5404178145        2.1093858532
 C         -8.0865313709        3.7255738649        2.7342605188
 C         -8.9529477103        4.6097841056        2.1138103994
 C         -9.4731517867        4.3004938562        0.8681565052
 C         -9.1269439988        3.1128696509        0.2500515893
 C         -9.3036821861       -0.0585474577       -0.9325174812
 C        -10.5801368160        0.0646839352       -0.3912004470
 C        -11.6908337059       -0.4085096247       -1.0654638245
 C        -11.5434714918       -1.0164381511       -2.3010707299
 C        -10.2812413209       -1.1470863769       -2.8552217348
 C         -9.1744581859       -0.6729950658       -2.1744933488
 C         -6.3249216418        0.7780167664       -1.1520157126
 C         -6.4160785188        1.6610641563       -2.2224612623
 C         -5.3945863199        1.8196065403       -3.1349127152
 C         -4.2446678662        1.0632170012       -2.9763146030
 C         -4.1261339941        0.1832603891       -1.9221596339
 C         -5.1552453399        0.0254123967       -0.9808640819
 C         -3.5920940482       -2.8048690819       -0.5174189548
 C         -2.3787574523       -3.4623079247       -0.5022421837
 C          1.2715198370       -2.8329096873        0.0434890497
 C          1.3608668359       -1.6414573822       -0.6749241101
 C          2.5578829505       -0.9550907327       -0.7327123927
 C          3.6767812710       -1.4446962490       -0.0649665163
 N          4.9142188082       -0.7340323050       -0.1106936095
 C          5.1063034543        0.2128597179        0.8924316083
 C          4.0493429395        0.4691512605        1.7792816385
 C          4.1671964056        1.4016427477        2.7873686407
 C          5.3431615235        2.1157842510        2.9504902381
 C          6.3901234219        1.8635458282        2.0893907421
 C          6.3000507860        0.9262326332        1.0661480169
 Si         7.7848020955        0.6193715796       -0.0330015447
 C          9.2003983428       -0.2279749102        0.9022845034
 C          9.3846704843       -1.6056092503        0.8318265289
 C         10.4163187361       -2.2239996953        1.5149049467
 C         11.2850429548       -1.4710456786        2.2866806756
 C         11.1161775471       -0.0988678283        2.3692868811
 C         10.0835293642        0.5129268844        1.6827062397
 C          8.4376597954        2.2284725776       -0.7878760281
 C          9.7538924279        2.3235183763       -1.2296941758
 C         10.2372801524        3.4929678592       -1.7875973463
 C          9.4074663043        4.5945400668       -1.9130849050
 C          8.0948717923        4.5178710729       -1.4785210339
 C          7.6175129551        3.3445152494       -0.9232948448
 C          7.0550304640       -0.5386475550       -1.3102130284
 C          7.8236923568       -0.9142495012       -2.4066025074
 C          7.3653153695       -1.8037797432       -3.3552080629
 C          6.0964770263       -2.3386784499       -3.2008775153
 C          5.3099719800       -1.9769934045       -2.1282343065
 C          5.7651144001       -1.0656128690       -1.1632612826
 C          3.5951676381       -2.6370136261        0.6454518385
 C          2.4026600358       -3.3312132004        0.6870508443
 H         -0.5338236627       -1.1699050572        1.1766514213
 H         -2.7090486978       -0.0018884959        1.1572898294
 H         -4.4041151954       -2.5193541496        2.0365060465
 H         -5.8294867474       -3.1523207992        3.8801859179
 H         -8.1165009753       -2.2127583048        4.0886861608
 H         -8.9050793898       -0.6105003623        2.3848109215
 H         -7.0705844166        1.8505854231        2.6000964064
 H         -7.6798904129        3.9610324285        3.7076261376
 H         -9.2238382238        5.5358636136        2.6001381044
 H        -10.1515425690        4.9861309638        0.3803913924
 H         -9.5444954529        2.8733472016       -0.7180498147
 H        -10.7035399874        0.5463829408        0.5687899187
 H        -12.6740320820       -0.3021301649       -0.6293280259
 H        -12.4099009818       -1.3851487804       -2.8310272508
 H        -10.1611528210       -1.6184108915       -3.8204381076
 H         -8.1914894712       -0.7721773193       -2.6137074118
 H         -7.3260288524        2.2330909850       -2.3321013728
 H         -5.4893459528        2.5116095228       -3.9577592876
 H         -3.4300631537        1.1563676751       -3.6799136415
 H         -3.2166176823       -0.3911413683       -1.8367597545
 H         -4.4592090660       -3.2533147111       -0.9784675737
 H         -2.2732809802       -4.4395999010       -0.9486866232
 H          0.5001885529       -1.2662487502       -1.2086005316
 H          2.6391476518       -0.0362458524       -1.2942514076
 H          3.1169237469       -0.0657400332        1.6846408597
 H          3.3305008154        1.5716650093        3.4494268345
 H          5.4373359185        2.8490917035        3.7368435227
 H          7.3180856462        2.4053944476        2.2014706343
 H          8.7124111698       -2.1968278481        0.2255051615
 H         10.5453895583       -3.2948138477        1.4449234433
 H         12.0924669945       -1.9513357424        2.8204275302
 H         11.7927934400        0.4937036558        2.9686619636
 H          9.9626210832        1.5853921681        1.7449644882
 H         10.4095066699        1.4699654928       -1.1265384816
 H         11.2630648110        3.5478822091       -2.1237373167
 H          9.7832514557        5.5102103525       -2.3465128146
 H          7.4438877414        5.3755588077       -1.5724499123
 H          6.5933575235        3.2906686885       -0.5812813779
 H          8.8129058319       -0.4901553524       -2.5019320211
 H          7.9816207107       -2.0824408498       -4.1963220331
 H          5.7110764736       -3.0440730359       -3.9225986578
 H          4.3272546495       -2.4147143231       -2.0455820921
 H          4.4715014262       -3.0109991797        1.1530869339
 H          2.3245315416       -4.2648966705        1.2233620573
