50

C      3.566096   -3.133091    1.893420
C      2.268716   -2.727054    2.168920
C      1.785673   -1.502367    1.697518
C      2.628809   -0.687886    0.908972
C      3.957546   -1.058618    0.683329
C      4.420045   -2.304196    1.164104
C      4.599856    0.013174    0.000339
C      5.925414    0.210803   -0.447786
C      6.277555    1.401931   -1.085525
C      5.327974    2.393751   -1.284610
C      4.009354    2.219976   -0.853380
C      3.654169    1.022233   -0.197037
N      2.427219    0.550894    0.284973
C      1.172900    1.238734    0.135414
C     -0.000009    0.515920   -0.000055
C     -1.172907    1.238771   -0.135445
N     -2.427239    0.550958   -0.285025
C     -2.628839   -0.687798   -0.909069
C     -1.785739   -1.502194   -1.697747
C     -2.268746   -2.726914   -2.169089
C     -3.566050   -3.133065   -1.893402
C     -4.419977   -2.304236   -1.163979
C     -3.957522   -1.058617   -0.683277
C     -4.599838    0.013158   -0.000268
C     -5.925380    0.210739    0.447927
C     -6.277539    1.401872    1.085649
C     -5.327992    2.393748    1.284635
C     -4.009389    2.220023    0.853335
C     -3.654183    1.022269    0.197025
N     -1.185517    2.587972   -0.098553
C      0.000014    3.196614    0.000080
N      1.185534    2.587941    0.098653
H      3.929884   -4.086089    2.269110
H      1.621472   -3.363281    2.768958
H      0.780685   -1.197339    1.972387
H      5.447736   -2.609667    0.987219
H      6.674910   -0.560290   -0.293111
H      7.298826    1.550695   -1.426314
H      5.608159    3.317401   -1.785831
H      3.283728    3.006637   -1.035175
H     -0.000017   -0.563039   -0.000112
H     -0.780815   -1.197072   -1.972746
H     -1.621532   -3.363076   -2.769234
H     -3.929803   -4.086101   -2.269024
H     -5.447617   -2.609792   -0.986963
H     -6.674856   -0.560388    0.293302
H     -7.298798    1.550607    1.426485
H     -5.608196    3.317409    1.785822
H     -3.283793    3.006731    1.035044
H      0.000023    4.281209    0.000133
