  61
 
 C         -8.0602934134        3.0186085378        0.0340752371
 C         -6.8887631378        3.1113558506       -0.6993943705
 C         -5.9891721181        2.0633592422       -0.7170335322
 C         -6.2484445102        0.9032412835        0.0121021218
 N         -5.3384256573       -0.1618329827        0.0009900349
 C         -5.8141875414       -1.4787957750       -0.0156664019
 C         -6.9511319043       -1.8083643184       -0.7530068060
 C         -7.4223353591       -3.1067102525       -0.7619299960
 C         -6.7676562187       -4.0960738535       -0.0466984377
 C         -5.6361811679       -3.7744151682        0.6849730816
 C         -5.1619870409       -2.4772827005        0.7072295708
 C         -3.9667410979        0.0909110630        0.0055144457
 C         -3.4463556789        1.1832430791        0.7030070207
 C         -2.0927116058        1.4374166646        0.6980732325
 C         -1.2053017532        0.6070771165        0.0112261083
 C          0.2299204771        0.8800751702        0.0070056198
 C          0.7180148554        2.1794477710       -0.0111107384
 N          2.0093429887        2.4647590862       -0.0230047537
 C          2.9417742599        1.5421419445       -0.0177526928
 N          4.2286095548        1.8500253691       -0.0206245170
 C          5.1414855782        0.8910408266       -0.0122543111
 C          4.7531413654       -0.4814831721        0.0006556953
 N          3.4818068920       -0.8165756098       -0.0002885794
 C          2.5389377461        0.1261840545       -0.0076670523
 C          1.1831531833       -0.1519949662        0.0059579616
 C          5.9527871808       -1.2973651393        0.0092904734
 C          6.2259505387       -2.6422510159        0.0239185605
 C          7.5755418927       -3.0458040595        0.0290158708
 C          8.6225596931       -2.1558765149        0.0199746065
 C          8.3747237692       -0.7631430703        0.0049382461
 C          9.3149741471        0.2956360136       -0.0058695527
 C          8.8840173263        1.6005025856       -0.0197057567
 C          7.5229587668        1.9618338766       -0.0237885623
 C          6.5842121995        0.9579389710       -0.0135940374
 C          7.0348160847       -0.3859852503        0.0003306992
 C         -1.7299721592       -0.4883836896       -0.6767020526
 C         -3.0842704155       -0.7405180742       -0.6871347139
 C         -7.4279204164        0.8157034918        0.7507991779
 C         -8.3251106810        1.8659595531        0.7553756619
 H         -8.7621219084        3.8386166488        0.0430746520
 H         -6.6770380276        4.0035977761       -1.2700794304
 H         -5.0813540853        2.1334135244       -1.2982919023
 H         -7.4579516111       -1.0403473894       -1.3188554991
 H         -8.3027592365       -3.3489413682       -1.3388286683
 H         -7.1369154911       -5.1102608159       -0.0589103479
 H         -5.1230208621       -4.5379665847        1.2509561009
 H         -4.2862776803       -2.2266158475        1.2879023370
 H         -4.1148629024        1.8262594256        1.2564325897
 H         -1.7108323567        2.2746892796        1.2629731117
 H          0.0596838960        3.0350909162       -0.0441718327
 H          0.8769783596       -1.1852208137        0.0446949666
 H          5.4389490009       -3.3808163862        0.0317026916
 H          7.7881253529       -4.1054165234        0.0406806184
 H          9.6413496709       -2.5157625802        0.0244244680
 H         10.3715836896        0.0706946711       -0.0031492806
 H          9.6182538129        2.3936785996       -0.0277808784
 H          7.2366911212        3.0021211299       -0.0345904217
 H         -1.0692303771       -1.1317969730       -1.2383671300
 H         -3.4728167425       -1.5822065433       -1.2415450125
 H         -7.6319182519       -0.0786518488        1.3212778939
 H         -9.2338102127        1.7866634505        1.3338145958
