  57
 
 C         -6.9407711289        1.7381572992        1.6281506883
 C         -6.0273413632        2.7264909555        1.2997761957
 C         -4.7463390883        2.3874007472        0.9096370501
 C         -4.3642996244        1.0482521197        0.8312965440
 C         -2.9933832146        0.7192392843        0.4414943494
 N         -2.0182743508        1.4862936727        0.9250519943
 C         -0.7310616326        1.2111830221        0.7295705274
 C          0.2964088500        2.0056200649        1.2320331290
 C          1.6253466284        1.6593068187        1.0435654927
 C          1.9518550881        0.5116931684        0.3366777109
 N          3.3123921061        0.1577321347        0.1508611907
 C          3.8357294857       -0.9688269243        0.7728329351
 C          3.0691323676       -1.7816696353        1.6021503272
 C          3.6234789205       -2.8984753476        2.2044261536
 C          4.9520167426       -3.2197103156        1.9975896738
 C          5.7362721200       -2.4089492308        1.1917303122
 C          5.1897406008       -1.2911534335        0.5874995256
 O          6.0263309075       -0.5221504968       -0.1781731246
 C          5.4941900426        0.5866185586       -0.7820779070
 C          6.3445689361        1.3519325371       -1.5595618362
 C          5.8667922072        2.4743746490       -2.2180042747
 C          4.5323667008        2.8175785909       -2.1047905344
 C          3.6757605425        2.0574729237       -1.3266688061
 C          4.1429984772        0.9410260252       -0.6401669094
 C          0.9501104342       -0.3008009139       -0.1963466407
 C         -0.3888004334        0.0196102127       -0.0173814885
 N         -1.3804499694       -0.7068321779       -0.5348445843
 C         -2.6606054625       -0.3803642967       -0.3716571611
 C         -3.6560229517       -1.1849108063       -1.0798793624
 C         -4.7524646798       -0.5991729173       -1.7123598146
 C         -5.6601033520       -1.3831027837       -2.3969919983
 C         -5.4865988943       -2.7565292046       -2.4679792206
 C         -4.3868887383       -3.3423041429       -1.8625093022
 C         -3.4736851661       -2.5642642307       -1.1778027110
 C         -5.2817956035        0.0597676813        1.1866144488
 C         -6.5600849463        0.4062987977        1.5777775638
 H         -7.9426811729        2.0040809607        1.9310501262
 H         -6.3149621883        3.7667077047        1.3492228563
 H         -4.0280248123        3.1519380897        0.6542642623
 H          0.0322743697        2.8873655432        1.7932570878
 H          2.4100694037        2.2786655470        1.4508270449
 H          2.0348741045       -1.5320820392        1.7769897828
 H          3.0074217319       -3.5149429766        2.8405721507
 H          5.3850267407       -4.0903452557        2.4640268265
 H          6.7790168239       -2.6240503224        1.0215706054
 H          7.3763872418        1.0492722116       -1.6389314916
 H          6.5365648381        3.0673771258       -2.8203221249
 H          4.1466994604        3.6807553774       -2.6248268985
 H          2.6337361562        2.3248761336       -1.2512709545
 H          1.2057159672       -1.1767491785       -0.7712140356
 H         -4.8841134942        0.4720881068       -1.6762198478
 H         -6.5058061494       -0.9196605425       -2.8836410119
 H         -6.2013799535       -3.3659405646       -3.0008793598
 H         -4.2402517335       -4.4108477745       -1.9253627875
 H         -2.6129599262       -3.0129338625       -0.7050322175
 H         -4.9865112925       -0.9788436930        1.1677155852
 H         -7.2628595458       -0.3670784921        1.8513912910
