  118
 
 O         -0.0179650117       -4.9178156143       -0.0224876815
 C         -0.0132161897       -3.6457293535       -0.0171224947
 C         -1.2608897742       -2.9167571610       -0.1614162008
 C         -2.3559826479       -3.5562890997       -0.7788325760
 C         -3.5693571285       -2.9289209940       -0.9070342218
 C         -3.7491429637       -1.6419637644       -0.3929788681
 N         -5.0044769077       -0.9842248994       -0.5230320294
 C         -6.0735579511       -1.4282303464        0.2323971874
 C         -5.8995955805       -2.4681081683        1.1571299418
 C         -6.9599845003       -2.9326376445        1.9035803699
 C         -8.2194904331       -2.3684358246        1.7563647049
 C         -8.3950198741       -1.3242094491        0.8678916886
 C         -7.3400205434       -0.8399317348        0.1080119998
 C         -7.5883333826        0.3152995756       -0.8241248403
 C         -8.2311401546        1.4717665756       -0.0768279755
 C         -7.7096730451        2.2053404410        0.9657878501
 C         -8.4796840350        3.2275405085        1.5062769283
 C         -9.7446276118        3.5023557222        1.0088015109
 C        -10.2720644338        2.7663700801       -0.0408859226
 C         -9.5087304494        1.7460388712       -0.5847501578
 C         -9.7855136309        0.8158912828       -1.6699621941
 C        -10.8930448189        0.6746582009       -2.4902159032
 C        -10.8800487799       -0.3180545690       -3.4576627489
 C         -9.7842282428       -1.1550875224       -3.6044415378
 C         -8.6704584320       -1.0183447825       -2.7854562658
 C         -8.6796901321       -0.0316239568       -1.8246785087
 C         -6.3452442037        0.7664407879       -1.5471970311
 C         -6.4233982220        1.8375034406       -2.3956974083
 C         -5.3130683997        2.2928069236       -3.1352774724
 C         -5.3819237031        3.4009697184       -3.9990732122
 C         -4.2791604166        3.8013396075       -4.7074622058
 C         -3.0651632321        3.1069453358       -4.5845089476
 C         -2.9673089319        2.0242347971       -3.7550064913
 C         -4.0849993723        1.5898182366       -3.0062175534
 C         -4.0162651785        0.4912100147       -2.1396905583
 C         -5.1117823143        0.0813200128       -1.3913784734
 C         -2.6921915064       -1.0113089561        0.2678309671
 C         -1.4734960863       -1.6356769533        0.3834771341
 C          1.2398811129       -2.9272642050        0.1333657989
 C          1.4621109435       -1.6434230078       -0.4009802820
 C          2.6853670035       -1.0290465033       -0.2797453835
 C          3.7372772444       -1.6729300795        0.3761859469
 N          4.9975497299       -1.0255396091        0.5117196423
 C          6.0615822202       -1.4669814694       -0.2521561158
 C          5.8781731126       -2.4941684707       -1.1891367200
 C          6.9332151451       -2.9556741497       -1.9449700534
 C          8.1965979635       -2.4009319212       -1.7949778488
 C          8.3816125383       -1.3693895059       -0.8936793863
 C          7.3321487474       -0.8884168460       -0.1240891411
 C          7.5906682434        0.2530041078        0.8221629373
 C          8.2373123974        1.4155243679        0.0876342177
 C          7.7169520715        2.1644672759       -0.9445494395
 C          8.4907256637        3.1893992391       -1.4743727647
 C          9.7580192819        3.4521875250       -0.9763832858
 C         10.2843248376        2.7007299424        0.0628486706
 C          9.5174519931        1.6772573328        0.5957186693
 C          9.7928424552        0.7315599480        1.6677736682
 C         10.9021787141        0.5739829600        2.4826094214
 C         10.8877132407       -0.4322100622        3.4360081789
 C          9.7885658361       -1.2662834431        3.5744941671
 C          8.6727948931       -1.1128823980        2.7612077880
 C          8.6835332207       -0.1128685292        1.8142809116
 C          6.3527910812        0.7021749356        1.5554840952
 C          6.4404290082        1.7608214137        2.4184944824
 C          5.3350704547        2.2135468437        3.1670437663
 C          5.4139508345        3.3088620840        4.0462604746
 C          4.3157092988        3.7072905983        4.7626492507
 C          3.0962089469        3.0239484519        4.6322308948
 C          2.9885912028        1.9537856713        3.7878121672
 C          4.1015386018        1.5215939940        3.0307121425
 C          4.0230735615        0.4355275878        2.1493185426
 C          5.1142106741        0.0277896466        1.3935572062
 C          3.5478742529       -2.9626004506        0.8797316119
 C          2.3298793068       -3.5798619968        0.7460085392
 H         -2.2030995722       -4.5543730023       -1.1636571313
 H         -4.3919602868       -3.4211892154       -1.4060377618
 H         -4.9220548813       -2.9052409779        1.2862605146
 H         -6.8022577489       -3.7371938285        2.6059306038
 H         -9.0529789687       -2.7333179456        2.3363054641
 H         -9.3676773079       -0.8680833284        0.7569719816
 H         -6.7252221946        1.9921983489        1.3566184087
 H         -8.0880370244        3.8140374140        2.3244567103
 H        -10.3265008267        4.3008275183        1.4460310799
 H        -11.2576496221        2.9840317766       -0.4246885900
 H        -11.7493259119        1.3231683246       -2.3793960393
 H        -11.7350280738       -0.4424407598       -4.1063900948
 H         -9.7955143152       -1.9226234679       -4.3643839670
 H         -7.8179847806       -1.6717966721       -2.9030801511
 H         -7.3660851313        2.3531369152       -2.5105369706
 H         -6.3193901833        3.9300768674       -4.0930023837
 H         -4.3366864254        4.6545315536       -5.3674507230
 H         -2.2072966502        3.4362647899       -5.1525362575
 H         -2.0356920238        1.4858109584       -3.6554027963
 H         -3.0825578990       -0.0435587644       -2.0603413116
 H         -2.8478709544       -0.0328411666        0.7000795675
 H         -0.6811532255       -1.1537997836        0.9360767895
 H          0.6735864870       -1.1512495674       -0.9499425367
 H          2.8484904016       -0.0482548092       -0.7038950903
 H          4.8975753747       -2.9238310178       -1.3201457155
 H          6.7682319745       -3.7503666236       -2.6568291006
 H          9.0258132775       -2.7633983387       -2.3825064001
 H          9.3574501216       -0.9207428243       -0.7801616440
 H          6.7305552279        1.9609557298       -1.3356216037
 H          8.1001271667        3.7875782716       -2.2845609813
 H         10.3426750560        4.2532339277       -1.4050980047
 H         11.2717557462        2.9089335976        0.4471509478
 H         11.7610319023        1.2201753270        2.3782947867
 H         11.7441263434       -0.5695536254        4.0802076251
 H          9.7988202881       -2.0446909229        4.3233142996
 H          7.8177480990       -1.7640989594        2.8723687136
 H          7.3869369296        2.2683012508        2.5381270458
 H          6.3555873054        3.8294893774        4.1457561963
 H          4.3810129429        4.5502787071        5.4348839463
 H          2.2420130059        3.3516099825        5.2067117027
 H          2.0527673313        1.4237993467        3.6825648232
 H          3.0852817197       -0.0911740790        2.0641872788
 H          4.3666711717       -3.4650207868        1.3748521898
 H          2.1693892355       -4.5798271440        1.1227746662
