  80
 
 F         -3.3303056300        6.3578266699        0.7051619853
 C         -2.3802561207        5.4637974808        1.0641321597
 F         -2.1393449449        5.6969422362        2.3670038604
 F         -1.2685035500        5.8301284992        0.4058416202
 C         -2.7970919815        4.0496000664        0.7888213004
 C         -2.4236011533        3.4328934712       -0.3988769330
 C         -2.8370826558        2.1396386371       -0.6554710942
 C         -3.6269180470        1.4645364572        0.2713270059
 N         -4.0094316591        0.1371672790        0.0196718888
 C         -3.1286883698       -0.9127251517       -0.1623913758
 C         -1.6795915935       -0.7906216661       -0.1147123781
 C         -1.0236975844        0.0171069332        0.8130864706
 C          0.3549416860        0.0861252339        0.8260903575
 C          1.1176095660       -0.6415263526       -0.0854185032
 C          2.5850722707       -0.5569358583       -0.0747544246
 C          3.2999901749       -0.4521102226       -1.2666311615
 C          4.6784066071       -0.3734723047       -1.2608927216
 C          5.3747429026       -0.4040262584       -0.0558652679
 N          6.7763050293       -0.3295974595       -0.0467976273
 C          7.5372464243        0.6438297770       -0.6619735990
 C          7.1301862914        1.7669032500       -1.3688152939
 C          8.1089573045        2.6085333529       -1.8618423701
 C          9.4627846997        2.3501938436       -1.6542705894
 C          9.8731614535        1.2446891203       -0.9357859769
 C          8.9078737075        0.3839540730       -0.4284026912
 C          8.9663840089       -0.8140258833        0.3621225328
 C         10.0108604269       -1.5687511781        0.8813238214
 C          9.7107321500       -2.7128002226        1.5939635918
 C          8.3893343728       -3.1134485402        1.7839018509
 C          7.3332544496       -2.3790022685        1.2791108317
 C          7.6281029751       -1.2177386225        0.5783016175
 C          4.6695957968       -0.5105842020        1.1397204644
 C          3.2909280893       -0.5840789361        1.1266841341
 C          0.4583272504       -1.4628953554       -0.9995242282
 C         -0.9181784984       -1.5447441408       -1.0084554845
 N         -3.7502197476       -2.0451401074       -0.3624189805
 C         -5.0803307759       -1.7610004440       -0.3126865526
 C         -6.1689860321       -2.6695194803       -0.4357515530
 C         -5.9544243359       -4.0398028526       -0.6215905680
 C         -7.0181269988       -4.9035297194       -0.7049415731
 C         -8.3150904164       -4.4036039304       -0.5999358593
 C         -8.5377643295       -3.0578154139       -0.4228341295
 C         -7.4772082181       -2.1414219911       -0.3421582079
 C         -7.6797215270       -0.7097994714       -0.1961492709
 C         -8.9648304374       -0.1476023788       -0.1869196978
 C         -9.1680575264        1.2094998911       -0.1001153820
 C         -8.0804004789        2.0750578174       -0.0361139003
 C         -6.8054613044        1.5647690014       -0.0325847359
 C         -6.5762777553        0.1819851395       -0.0883687273
 C         -5.2767863778       -0.4008721617       -0.0864977329
 C         -3.9981834862        2.0890146866        1.4616619676
 C         -3.5881594708        3.3822012159        1.7183304546
 H         -1.8121574731        3.9600891805       -1.1142806174
 H         -2.5505906550        1.6486673001       -1.5723530606
 H         -1.5881327667        0.5762234814        1.5440872247
 H          0.8477294938        0.7251379146        1.5438825534
 H          2.7684732548       -0.4185694987       -2.2060822257
 H          5.2250894936       -0.3001788747       -2.1893752542
 H          6.0833264569        1.9826206931       -1.5215829660
 H          7.8185286664        3.4888383357       -2.4169437662
 H         10.1980149282        3.0313297007       -2.0574543215
 H         10.9220053723        1.0528352595       -0.7642268996
 H         11.0355583667       -1.2667005257        0.7231919877
 H         10.5087602325       -3.3132761887        2.0058504723
 H          8.1867730243       -4.0206378170        2.3346512558
 H          6.3132311626       -2.7047826552        1.4178135279
 H          5.2085257840       -0.5253354333        2.0755403465
 H          2.7537524189       -0.6787517133        2.0587441256
 H          1.0342382060       -2.0570212730       -1.6934004575
 H         -1.4283277913       -2.1902717378       -1.7069029404
 H         -4.9347333780       -4.3872656720       -0.6881291724
 H         -6.8560073366       -5.9619392857       -0.8465420144
 H         -9.1554167921       -5.0804560128       -0.6573837609
 H         -9.5581045585       -2.7183105514       -0.3436824365
 H         -9.8293628257       -0.7869448789       -0.2604290557
 H        -10.1732664572        1.6045869960       -0.0964178617
 H         -8.2358874739        3.1429721716        0.0050830750
 H         -5.9670988503        2.2419592923       -0.0053990603
 H         -4.6071481028        1.5574853430        2.1770694383
 H         -3.8698490301        3.8704978918        2.6383615399
