  90
 
 C          0.0135891374       -5.4957143686        1.3361023914
 C         -1.1974546410       -4.8927621300        1.1127050873
 C         -1.2795241504       -3.5889205476        0.5369922127
 C         -2.5281481848       -2.9570509555        0.3065779895
 C         -3.7521536521       -3.7190001081        0.2454207201
 C         -4.9658988232       -3.1491061074        0.0526299200
 C         -5.0652809726       -1.7348241075       -0.0745312103
 C         -3.8492713753       -0.9567314685       -0.0249716435
 C         -2.6385499178       -1.5310708826        0.1391926166
 C         -4.1868259976        0.5106507818       -0.1600600539
 C         -3.7453950171        1.3495754353        1.0170207766
 C         -4.0423176698        1.1764257246        2.3517428195
 C         -3.5303415690        2.0861899831        3.2674576788
 C         -2.7407671369        3.1474692231        2.8488692678
 C         -2.4426415865        3.3267475513        1.5074344160
 C         -2.9474772678        2.4210846010        0.5881772496
 C         -2.8080639335        2.3421992971       -0.8573128369
 C         -2.1445222783        3.1607200023       -1.7566740816
 C         -2.1811423309        2.8348417382       -3.1028725103
 C         -2.8644014389        1.7115445650       -3.5455712477
 C         -3.5393481848        0.8914266642       -2.6510831336
 C         -3.5091017655        1.2144347772       -1.3114366842
 C         -5.6904866615        0.4731121886       -0.3108453807
 C         -6.5584436205        1.5150972526       -0.4831053845
 C         -7.9262733308        1.2423510593       -0.5943210177
 C         -8.3995697188       -0.0734688973       -0.5323384750
 C         -7.5446416060       -1.1332452365       -0.3610326962
 C         -6.1576698865       -0.8794427241       -0.2477711255
 C         -0.0483179076       -2.9641400285        0.2070890567
 C          1.1676274722       -3.5828720304        0.4060334695
 C          2.4223194433       -2.9293847945        0.0083297389
 C          3.4449862235       -3.6800078297       -0.5778289436
 C          4.6439307503       -3.1039637339       -0.9542951406
 C          4.8295977784       -1.7471479643       -0.7384342724
 C          3.8044477715       -0.9847045830       -0.1562294319
 C          2.6111632773       -1.5589417118        0.2141341254
 C          4.2292689622        0.4589078204       -0.0248459315
 C          4.1706264412        0.9888380638        1.3880269771
 C          4.8056780892        0.5049791063        2.5111587851
 C          4.6090952205        1.1634895019        3.7181814068
 C          3.7920998772        2.2819792150        3.7923536148
 C          3.1523853153        2.7719649426        2.6646207656
 C          3.3452077913        2.1211893211        1.4567756237
 C          2.8256237557        2.3948674053        0.1256288614
 C          1.9927885411        3.3979816170       -0.3427877971
 C          1.6701300661        3.4172692836       -1.6902900229
 C          2.1613279646        2.4507553174       -2.5550263459
 C          2.9979788483        1.4433659157       -2.0931632295
 C          3.3263830709        1.4250490045       -0.7550603006
 C          5.6280256528        0.4230040739       -0.5953081102
 C          6.5217249819        1.4617759636       -0.7367828383
 C          7.7638672295        1.1948172657       -1.2984760296
 C          8.0977441721       -0.0880700378       -1.7079897864
 C          7.2009880200       -1.1352488637       -1.5690718127
 C          5.9593737743       -0.8762475252       -1.0094687599
 C          1.2024323881       -4.8643725579        0.9873584380
 H          0.0479700294       -6.4743699012        1.7942757606
 H         -2.0979568114       -5.3959726937        1.4256928318
 H         -3.6877583436       -4.7938376541        0.3098367345
 H         -5.8592911444       -3.7525892223       -0.0107757037
 H         -1.7540452574       -0.9154333502        0.1980031839
 H         -4.6593978603        0.3516747294        2.6785212920
 H         -3.7507128296        1.9662997501        4.3183275927
 H         -2.3552881242        3.8436011724        3.5800362252
 H         -1.8316226884        4.1570034036        1.1862477997
 H         -1.6133142772        4.0363711940       -1.4157415789
 H         -1.6723294265        3.4632822642       -3.8195401206
 H         -2.8766062991        1.4746575132       -4.5996136720
 H         -4.0784183991        0.0215706647       -2.9982313167
 H         -6.1999816102        2.5336729020       -0.5307839925
 H         -8.6237654875        2.0549723904       -0.7288356466
 H         -9.4621387136       -0.2507090236       -0.6216690504
 H         -7.9134285385       -2.1467238563       -0.3142121660
 H         -0.0620121184       -2.0023101327       -0.2822526948
 H          3.2844801306       -4.7329467220       -0.7587948978
 H          5.4193176363       -3.7025197017       -1.4092675258
 H          1.8374418014       -0.9662604805        0.6810312524
 H          5.4422899567       -0.3664651622        2.4544171311
 H          5.0988082090        0.7997214652        4.6098384086
 H          3.6538250431        2.7775988417        4.7426270448
 H          2.5173231926        3.6432842041        2.7277526792
 H          1.6103672958        4.1537947646        0.3270177673
 H          1.0285407140        4.1959551722       -2.0755923609
 H          1.8948401178        2.4837292956       -3.6013399158
 H          3.3859503515        0.6937645803       -2.7680923272
 H          6.2627785325        2.4614009692       -0.4181164006
 H          8.4785427702        1.9962727741       -1.4170091674
 H          9.0702737862       -0.2715146263       -2.1418522444
 H          7.4652439412       -2.1322511248       -1.8895578065
 H          2.1495145489       -5.3419437000        1.1844498629
