  105
 
 C          1.9916930230       -9.3064698693       -2.1300491824
 C          2.6078502403       -9.4904054209       -0.9031073079
 C          3.0889948971       -8.4079929197       -0.1923310736
 C          2.9654908600       -7.1187306922       -0.7085233052
 N          3.4633836755       -6.0192289415        0.0036745079
 C          4.6688068623       -6.1429334717        0.7077677758
 C          4.8281151347       -5.5288927679        1.9495628026
 C          6.0172533598       -5.6569231121        2.6405692101
 C          7.0589998320       -6.4023117129        2.1130243454
 C          6.9035918674       -7.0180980016        0.8819595396
 C          5.7212683622       -6.8891679872        0.1792405955
 C          2.7679245500       -4.8125683574        0.0088473160
 C          1.3697342232       -4.7979656019       -0.0153253852
 C          0.6847159555       -3.6046330672       -0.0113228745
 C          1.3724800587       -2.3911121933        0.0150951558
 C          0.6450650784       -1.1274778864        0.0136832491
 N         -0.6850454313       -1.1722544553        0.0365437617
 C         -1.3071517494        0.0046777322        0.0351843784
 C         -2.7641421459        0.0074446843        0.0849256378
 C         -3.4726333425        1.2085289883        0.0411741886
 C         -4.8475012002        1.2132594679        0.0939952029
 C         -5.5573909572        0.0124912392        0.1961376918
 N         -6.9483990586        0.0153962687        0.2549717345
 C         -7.6278521539        1.0604519993        0.8961661347
 C         -8.8239995729        1.5487830923        0.3721261877
 C         -9.4975808059        2.5708556442        1.0124292678
 C         -8.9890720522        3.1257727889        2.1753292399
 C         -7.7993839954        2.6457540263        2.6981704579
 C         -7.1227210418        1.6183383326        2.0700156897
 C         -7.6839660714       -1.0287171833       -0.3226162054
 C         -8.8306915082       -1.5137104075        0.3048034909
 C         -9.5597664007       -2.5352065615       -0.2725280240
 C         -9.1560584144       -3.0928045790       -1.4745912106
 C         -8.0156758640       -2.6161044197       -2.1002333597
 C         -7.2845384486       -1.5893302932       -1.5352439392
 C         -4.8461450254       -1.1910113685        0.2394040649
 C         -3.4714419091       -1.1911554637        0.1830367872
 N         -0.6813991191        1.1788694661       -0.0080531133
 C          0.6485571033        1.1289564282       -0.0322955925
 C          1.3802600325        2.3889177377       -0.0853668867
 C          0.6970465206        3.6049315693       -0.1159378609
 C          1.3864241095        4.7944448299       -0.1717928420
 C          2.7846553357        4.8027343078       -0.1984510280
 N          3.4845704730        6.0053042982       -0.2571658692
 C          2.9654041775        7.0911435201       -0.9751487640
 C          2.3015702454        6.8869596400       -2.1843321439
 C          1.7953573657        7.9615981160       -2.8891999086
 C          1.9491028521        9.2517088665       -2.4084661656
 C          2.6121926838        9.4598310946       -1.2101907660
 C          3.1146314934        8.3910366529       -0.4935624682
 C          4.7163731088        6.1384334424        0.3979814106
 C          5.7518347586        6.8658453708       -0.1872930588
 C          6.9605933014        7.0039827338        0.4670520736
 C          7.1593815730        6.4160961109        1.7054926831
 C          6.1345386441        5.6895538013        2.2894231685
 C          4.9194239741        5.5526440031        1.6470147913
 C          3.4686425497        3.5833589129       -0.1658287071
 C          2.7751970749        2.3963156421       -0.1104894457
 N          1.3528303556       -0.0004564695       -0.0118168901
 C          2.7673378777       -2.4047340691        0.0394703279
 C          3.4564094936       -3.5956637418        0.0374981482
 C          2.3488397418       -6.9389564843       -1.9462312337
 C          1.8635039305       -8.0269304745       -2.6452923807
 H          1.6146144694      -10.1544745985       -2.6812351702
 H          2.7080368589      -10.4840005838       -0.4916289683
 H          3.5617231771       -8.5525420932        0.7681567367
 H          4.0129988880       -4.9563465111        2.3672807891
 H          6.1274782063       -5.1783052468        3.6025150017
 H          7.9853553836       -6.5030791482        2.6578344994
 H          7.7121927940       -7.5972720605        0.4608803342
 H          5.6049673427       -7.3630277323       -0.7845210481
 H          0.8310923312       -5.7342926583       -0.0280497573
 H         -0.3935924263       -3.5889167464       -0.0218883645
 H         -2.9221062100        2.1319349360       -0.0444610637
 H         -5.3899128335        2.1463547009        0.0483944317
 H         -9.2177205001        1.1227313072       -0.5391279985
 H        -10.4222987029        2.9417153233        0.5953762359
 H         -9.5166476218        3.9263386115        2.6711771814
 H         -7.3988009114        3.0682854084        3.6078681749
 H         -6.2010110936        1.2378382174        2.4851758242
 H         -9.1422056776       -1.0857442442        1.2464626909
 H        -10.4451053692       -2.9036115070        0.2244901031
 H         -9.7265945012       -3.8929540817       -1.9210866170
 H         -7.6970461163       -3.0408375605       -3.0407796405
 H         -6.4017240881       -1.2114848104       -2.0297761590
 H         -5.3864603933       -2.1221749407        0.3284967744
 H         -2.9191136735       -2.1164575445        0.2260967088
 H         -0.3809652017        3.5944067570       -0.0863890723
 H          0.8515293584        5.7328896179       -0.1863999229
 H          2.1905639777        5.8827238818       -2.5662851988
 H          1.2850695162        7.7904564287       -3.8256180506
 H          1.5554556317       10.0891516621       -2.9641950667
 H          2.7327348297       10.4618931851       -0.8255804171
 H          3.6241187214        8.5545926957        0.4448292813
 H          5.6015366039        7.3177950017       -1.1568591069
 H          7.7556335357        7.5682874212        0.0022349929
 H          8.1062558214        6.5238681153        2.2123685393
 H          6.2786820611        5.2328135904        3.2575002086
 H          4.1177869230        4.9948990714        2.1085400161
 H          4.5485097392        3.5814969532       -0.1952866632
 H          3.2984889783        1.4534470964       -0.0958293236
 H          3.2944595534       -1.4639575865        0.0514785373
 H          4.5366323509       -3.5990420482        0.0474921413
 H          2.2579678629       -5.9431359994       -2.3546316700
 H          1.3899309164       -7.8747321152       -3.6040059486
