  72
 
 C         -7.3544238310       -0.5911679438        1.1163417054
 C         -6.4729732594       -0.0000518277       -0.0001404177
 C         -7.3540314979        0.5910358587       -1.1169489196
 C         -5.6229457421        1.1095714509        0.5906375255
 C         -6.2418374975        2.2051178189        1.1774055779
 C         -5.5221884135        3.2371424462        1.7516421032
 C         -4.1402913839        3.1761508226        1.7551154580
 C         -3.4994228513        2.1000991337        1.1774357084
 C         -4.2244553910        1.0646563580        0.5794465900
 N         -3.5506288015        0.0000809750        0.0002309393
 C         -2.1290373936        0.0001879993        0.0003269138
 C         -1.4303524291        0.7754074218       -0.9185419616
 C         -0.0490393145        0.7794706458       -0.9124528192
 C          0.6590498073        0.0002427896        0.0003589359
 C          2.1293186696        0.0001722785        0.0002711172
 C          2.8459077742        1.1821230448       -0.1693497988
 C          4.2393550154        1.1354917340       -0.1783621414
 C          5.0642657891        2.3393058026       -0.3661556398
 C          6.3584136874        2.3626790864        0.1577562775
 C          7.1638608231        3.4701773992        0.0021871160
 C          6.6822987956        4.5830155260       -0.6921631740
 C          7.4987110736        5.7232627807       -0.8556017812
 N          8.1611516234        6.6515645829       -0.9883355306
 C          5.3935290793        4.5655988375       -1.2298149538
 C          4.5960947518        3.4516820955       -1.0661095207
 N          4.9062497944        0.0000122260        0.0000248993
 C          4.2392560078       -1.1353923516        0.1785282389
 C          5.0640489479       -2.3393151691        0.3661182583
 C          4.5958442581       -3.4516970528        1.0660464510
 C          5.3931329686       -4.5657454080        1.2294883470
 C          6.6818279885       -4.5833291381        0.6916128105
 C          7.4980359537       -5.7236611834        0.8547414583
 N          8.1603365009       -6.6521039605        0.9872502771
 C          7.1634218619       -3.4704471159       -0.0026897712
 C          6.3581143302       -2.3628231319       -0.1580016877
 C          2.8458021696       -1.1818604927        0.1697684626
 C         -0.0490291782       -0.7789749562        0.9131874039
 C         -1.4303430364       -0.7749646402        0.9192459061
 C         -4.2242098558       -1.0645848561       -0.5791062778
 C         -3.4989377344       -2.0999805005       -1.1768868739
 C         -4.1395652287       -3.1761190762       -1.7546724224
 C         -5.5214567946       -3.2372460723       -1.7515230245
 C         -6.2413403821       -2.2052652810       -1.1775016389
 C         -5.6226937619       -1.1096374744       -0.5906269716
 H         -6.7273579708       -1.0078047808        1.9030565398
 H         -7.9904370074        0.1731521043        1.5542526200
 H         -7.9906769800       -1.3826422988        0.7300304661
 H         -7.9898735247       -0.1733029538       -1.5550773188
 H         -6.7266875755        1.0076678101       -1.9034447788
 H         -7.9904287991        1.3825109272       -0.7308752390
 H         -7.3199023323        2.2602936042        1.1912578113
 H         -6.0368195925        4.0751827270        2.1974903365
 H         -3.5575017413        3.9647368895        2.2085733137
 H         -2.4212114533        2.0567110240        1.1923749783
 H         -1.9778375774        1.3735694640       -1.6320077183
 H          0.4855690108        1.3718719928       -1.6399543053
 H          2.3247036452        2.1216202362       -0.2570920563
 H          6.7154915455        1.4949948743        0.6901490629
 H          8.1631818570        3.4873319190        0.4115976082
 H          5.0312223730        5.4253803586       -1.7742980437
 H          3.6107812823        3.4435751678       -1.5059033351
 H          3.6106088254       -3.4434893300        1.5060154794
 H          5.0307966007       -5.4255376602        1.7739372432
 H          8.1626764184       -3.4877077035       -0.4122598371
 H          6.7152278482       -1.4951330013       -0.6903634884
 H          2.3245034517       -2.1212975723        0.2575903817
 H          0.4855856125       -1.3713631408        1.6406954346
 H         -1.9778216613       -1.3731563494        1.6326918633
 H         -2.4207279154       -2.0564895091       -1.1915828167
 H         -3.5565908725       -3.9646646902       -2.2079631287
 H         -6.0359006998       -4.0753555676       -2.1974583100
 H         -7.3193966602       -2.2605350237       -1.1916219174
