  93
 
 F         -3.2598302439       -3.1222225745       -2.7823902632
 C         -3.1193441134       -3.6759131983       -1.5668594780
 F         -1.8664171782       -3.3660434755       -1.1642826994
 F         -3.1188067215       -5.0068956952       -1.7580766524
 C         -4.1567830154       -3.2228644334       -0.5818764575
 C         -4.4858120752       -4.0394512067        0.4926933822
 C         -5.4153804226       -3.5959791629        1.4193960122
 C         -6.0000482496       -2.3502564305        1.2837496454
 C         -5.6664477577       -1.5365857780        0.2020929673
 N         -6.2167966596       -0.2509952686        0.0801680634
 C         -5.4773789317        0.9169604956        0.0526151207
 C         -4.0235805541        0.9600183482        0.1145762666
 C         -3.2902910927        0.1542712183        0.9845966345
 C         -1.9116402555        0.2116791265        0.9933875811
 C         -1.2237205667        1.0767234382        0.1433604856
 C          0.2445578273        1.1105092334        0.1354606880
 C          0.9822956175       -0.0690669778        0.2265928681
 C          2.3618729019       -0.0432154167        0.2026720219
 C          3.0535410288        1.1630146126        0.0975674574
 C          4.5219279056        1.1885419962        0.0666911171
 C          5.2356417598        0.2126495580       -0.6288243299
 C          6.6148809488        0.2284290379       -0.6619948159
 C          7.3239333672        1.2243100749        0.0082481877
 C          8.7772352762        1.2878728784       -0.0210567396
 N          9.4426600768        2.4106238356       -0.0961716397
 C         10.7652658071        2.0647371015       -0.1563519049
 C         11.9018072110        2.8624745158       -0.2425468975
 C         13.1270847314        2.2305645827       -0.2698209942
 C         13.2359421870        0.8395927591       -0.2031084308
 C         12.1213805336        0.0286710793       -0.1198295680
 C         10.8854636618        0.6554875133       -0.1123626279
 N          9.5961750182        0.1776283389       -0.0265988787
 C          9.2301555869       -1.1687835845        0.1573100994
 C          8.4159007189       -1.5290486346        1.2263860546
 C          8.0685480967       -2.8551708796        1.4067352625
 C          8.5369727222       -3.8251494336        0.5349185145
 C          9.3536783903       -3.4659965327       -0.5244545870
 C          9.7004072187       -2.1405921466       -0.7192197254
 C          6.6152959705        2.2149914893        0.6876612379
 C          5.2367032937        2.1934153748        0.7194158583
 C          2.3150218780        2.3429305993        0.0151975714
 C          0.9352058652        2.3168091818        0.0289277772
 C         -1.9636919851        1.9077939830       -0.6978435105
 C         -3.3418427851        1.8534387376       -0.7114048543
 N         -6.2368154888        1.9772758530       -0.0231979040
 C         -7.5204688851        1.5222551066       -0.0429438424
 C         -8.7172704710        2.2923628113       -0.0638897609
 C         -8.6823800982        3.6913230239       -0.0567810198
 C         -9.8490422658        4.4142296930       -0.0278357419
 C        -11.0699768656        3.7423091238        0.0002185198
 C        -11.1165097555        2.3676618256       -0.0153145794
 C         -9.9464415829        1.5931853873       -0.0582409080
 C         -9.9628809949        0.1414375273       -0.1179811073
 C        -11.1637367856       -0.5761014407       -0.2220463947
 C        -11.1885139386       -1.9468628900       -0.3278574917
 C         -9.9977535088       -2.6663796595       -0.3562534299
 C         -8.8001910091       -2.0024978121       -0.2504867363
 C         -8.7537917126       -0.6078925531       -0.1069680221
 C         -7.5415693274        0.1309197467        0.0061637152
 C         -4.7393091637       -1.9736320219       -0.7378632099
 H         -4.0219501416       -5.0077138554        0.5964027555
 H         -5.6775721989       -4.2225142560        2.2569120572
 H         -6.7165377790       -1.9966894335        2.0102747734
 H         -3.7984108873       -0.5031502913        1.6744393651
 H         -1.3593991312       -0.4092743083        1.6828864250
 H          0.4671362725       -1.0165360002        0.2914524753
 H          2.9128790473       -0.9687358969        0.2843305619
 H          4.7024294212       -0.5531004671       -1.1724424308
 H          7.1422990469       -0.5238111571       -1.2300045380
 H         11.8135972815        3.9369137922       -0.2812329004
 H         14.0287737593        2.8216899116       -0.3368418047
 H         14.2170851199        0.3882411585       -0.2161092056
 H         12.2111408071       -1.0455888690       -0.0578805059
 H          8.0605245688       -0.7683095694        1.9058463074
 H          7.4345913437       -3.1311205900        2.2359068132
 H          8.2663655980       -4.8597727372        0.6816875660
 H          9.7196337024       -4.2182778824       -1.2072538322
 H         10.3231460849       -1.8506782327       -1.5528612139
 H          7.1679700324        2.9935085620        1.1911756806
 H          4.7054276540        2.9532850838        1.2729654528
 H          2.8292071357        3.2876721818       -0.0834701083
 H          0.3832159837        3.2437529919       -0.0253127673
 H         -1.4507137858        2.5837624541       -1.3656019344
 H         -3.9122955500        2.4919145751       -1.3687833658
 H         -7.7164181681        4.1728967923       -0.0649907984
 H         -9.8256082916        5.4940546993       -0.0195406565
 H        -11.9906250997        4.3069519378        0.0344433278
 H        -12.0836245307        1.8915759480        0.0121860907
 H        -12.1032517027       -0.0480658743       -0.2331541320
 H        -12.1335437624       -2.4638836769       -0.4061903902
 H        -10.0130521060       -3.7403932741       -0.4683438004
 H         -7.8798552990       -2.5620876687       -0.2990058986
 H         -4.4776565646       -1.3460220498       -1.5759572752
