  133
 
 C         -7.4877144038       -1.0509264316        4.4169540703
 C         -7.6093545650       -1.4275473211        2.9333519139
 C         -9.0657331778       -1.2217645251        2.5080998121
 C         -7.2632886975       -2.9113529694        2.7427193735
 C         -6.6382653456       -0.5822554031        2.1238926863
 C         -5.2675219415       -0.6780451678        2.3965337008
 C         -4.3131706367        0.0449646081        1.7085843923
 C         -4.7412671821        0.8899855263        0.6953450611
 C         -6.1196346060        1.0301620223        0.4242563712
 C         -7.0575345907        0.2947367356        1.1325160118
 C         -6.2299391459        2.0166647884       -0.6181844585
 C         -7.3111205802        2.5461855351       -1.3055590291
 C         -7.0973407336        3.4846596605       -2.3062202184
 C         -8.2351325706        4.1152156678       -3.0936546004
 C         -9.6110938918        3.6194004416       -2.6403623436
 C         -8.0696232412        3.7701157718       -4.5806384480
 C         -8.1919651704        5.6383830143       -2.9047351808
 C         -5.7795656232        3.8521892722       -2.6080139581
 C         -4.6852754662        3.3394743569       -1.9400700139
 C         -4.9133806226        2.4293752678       -0.9184103053
 N         -4.0209327712        1.7413437170       -0.1196539529
 C         -2.6333713130        1.8727688348       -0.1284037398
 C         -2.0600724134        3.1549129306       -0.1449248254
 C         -0.6762771706        3.3147677950       -0.1296896717
 C          0.1167540612        2.1857213863       -0.1069595364
 C         -0.4548421108        0.8719832368       -0.1426288350
 C         -1.8430765347        0.7262336409       -0.1314641468
 C          0.6219366231       -0.0447522111       -0.1859553178
 C          0.7012444603       -1.4385724263       -0.2259811240
 C          1.9597041328       -2.0346329476       -0.2072303549
 N          2.0559629667       -3.4245019379       -0.2431721403
 C          2.9141596211       -4.1613388164       -1.0359653194
 C          3.8159675628       -3.7480543449       -2.0052668729
 C          4.5289651868       -4.7171209073       -2.6831269816
 C          4.3709778158       -6.0879163571       -2.4411361158
 C          5.2112084258       -7.0762928217       -3.2345984736
 C          4.9034144126       -6.9114849725       -4.7298165456
 C          6.6978192412       -6.7932695517       -2.9748034456
 C          4.9306006997       -8.5312291422       -2.8486224093
 C          3.4408300019       -6.4908128909       -1.4923867858
 C          2.7126575306       -5.5381137898       -0.7964463537
 C          1.6809867689       -5.6305098220        0.2028869462
 C          1.0832594722       -6.7029514368        0.8471364392
 C          0.1112126922       -6.4715607609        1.8110456442
 C         -0.5932002069       -7.5985279556        2.5503371129
 C         -2.1048307309       -7.4943025636        2.3016568224
 C         -0.3027061012       -7.4730718060        4.0528636240
 C         -0.1312559955       -8.9840331539        2.0907240815
 C         -0.2199541423       -5.1465813070        2.1225775312
 C          0.3619542247       -4.0607550799        1.4984261755
 C          1.3046178583       -4.3050793024        0.5107814433
 C          3.1324627357       -1.2644185812       -0.1422757544
 C          3.0676491149        0.1272467884       -0.1129936919
 C          1.8268793166        0.7286907430       -0.1592379822
 N          1.4928676477        2.0683283814       -0.1213434226
 C          2.3987523791        3.1230812240       -0.1179175986
 C          2.2356626134        4.1977247990        0.7757213572
 C          3.1338336834        5.2360786815        0.7741352783
 C          4.1982058537        5.2346352452       -0.1253035768
 S          5.4106453672        6.5309037144       -0.0510976088
 O          6.1069624925        6.5968006263       -1.3119584059
 O          4.7905013413        7.7304068662        0.4543525757
 C          6.5293622180        5.8931409925        1.1938640170
 C          6.3152974968        6.2052949238        2.5252696359
 C          7.1282270242        5.6426602214        3.4924683616
 C          8.1411790126        4.7687943249        3.1233294966
 C          8.3472009019        4.4612897564        1.7855541818
 C          7.5365142776        5.0220302193        0.8156248457
 C          4.3740635836        4.1735907650       -1.0112249353
 C          3.4860857645        3.1263593437       -1.0110116559
 H         -8.1924754244       -1.6309566386        5.0089208842
 H         -6.4875951287       -1.2425052899        4.7953416515
 H         -7.7076872184        0.0055631996        4.5555102112
 H         -9.3765834826       -0.1907978248        2.6601690989
 H         -9.2101192466       -1.4893307722        1.4638669537
 H         -9.7116373032       -1.8579432098        3.1098176967
 H         -7.3270603555       -3.1797449900        1.6901955739
 H         -7.9610238142       -3.5324897003        3.3002672539
 H         -6.2584630199       -3.1338647143        3.0903779417
 H         -4.9291398651       -1.3371758684        3.1810388375
 H         -3.2686945755       -0.0389616038        1.9666441118
 H         -8.1008953363        0.4257849197        0.8998815713
 H         -8.3018809309        2.2100056968       -1.0498308534
 H         -9.7865979964        3.8548956278       -1.5931849967
 H        -10.3839617868        4.1100699167       -3.2284294626
 H         -9.7094402715        2.5463708786       -2.7878955255
 H         -8.8887664688        4.1956794782       -5.1562968754
 H         -7.1368662404        4.1599217267       -4.9781059498
 H         -8.0743439020        2.6908447504       -4.7188226065
 H         -9.0118759902        6.1054751138       -3.4460732930
 H         -8.2872878402        5.8890116176       -1.8502348556
 H         -7.2600471409        6.0588533466       -3.2716465871
 H         -5.5966429127        4.5630559306       -3.3987872568
 H         -3.6851143431        3.6317953681       -2.2197032651
 H         -2.7000492051        4.0212526290       -0.1210065989
 H         -0.2498124560        4.3050684030       -0.1362732178
 H         -2.2952574089       -0.2514187281       -0.1823939035
 H         -0.1894801603       -2.0391668267       -0.3184663090
 H          3.9514925718       -2.7030922322       -2.2371484747
 H          5.2320592497       -4.3901072035       -3.4334053357
 H          5.1502330765       -5.9129626505       -5.0791331253
 H          3.8459867682       -7.0863897905       -4.9173168222
 H          5.4803735153       -7.6274634771       -5.3111835816
 H          6.9183560547       -6.8878412209       -1.9135168481
 H          7.3145058548       -7.5043722749       -3.5202539023
 H          6.9737844428       -5.7916754719       -3.2919444123
 H          5.5647088594       -9.1904277153       -3.4379262622
 H          5.1496050213       -8.7067094361       -1.7978608164
 H          3.8951035529       -8.7971007642       -3.0482285109
 H          3.2625529395       -7.5323115096       -1.2839063176
 H          1.3935486568       -7.7009820773        0.5872430155
 H         -2.3157650045       -7.5623418151        1.2364022874
 H         -2.6238632193       -8.3048162017        2.8087841381
 H         -2.5049051245       -6.5532381900        2.6682461065
 H          0.7691518638       -7.5210490209        4.2334407882
 H         -0.7810415375       -8.2858012277        4.5952745874
 H         -0.6731828987       -6.5333804057        4.4526232885
 H          0.9301749677       -9.1261426549        2.2800670674
 H         -0.6746740479       -9.7481232200        2.6428556422
 H         -0.3292085810       -9.1312547475        1.0314867935
 H         -0.9560589100       -4.9511700476        2.8870011771
 H          0.0974994357       -3.0549994143        1.7865314660
 H          4.0858206047       -1.7600049801       -0.0610456468
 H          3.9718625071        0.7085160582       -0.0206841531
 H          1.4219655486        4.1753770544        1.4845025483
 H          3.0305855208        6.0714206031        1.4480830346
 H          5.5286712577        6.8996655022        2.7753162966
 H          6.9769799284        5.8850110873        4.5339732862
 H          8.7756750299        4.3307932314        3.8795587124
 H          9.1418245313        3.7867447034        1.5027657199
 H          7.6786544581        4.8164383366       -0.2336628274
 H          5.1968647525        4.2165003456       -1.7068502363
 H          3.5841303508        2.3208098072       -1.7228838402
