  76
 
 O          7.4143597885        3.1651499535        1.2512463864
 C          7.5205184052        2.0637245969        0.6226534759
 C          8.8059928955        1.7039553863        0.0173656793
 C          9.2566938087        0.3796050145       -0.0657829370
 C         10.4960779929        0.0943797086       -0.6007378152
 C         11.3213706743        1.1134852499       -1.0562553188
 C         10.9007410807        2.4319926189       -0.9477057903
 C          9.6666053168        2.7256755758       -0.4090284832
 C          6.3849632433        1.1869314461        0.4927156183
 C          5.2775048564        1.3774228708        1.3560339920
 C          4.1595561519        0.5945396968        1.2679921424
 C          4.0732593572       -0.4098024212        0.2913524353
 N          2.9303358548       -1.2100499331        0.1924780526
 C          2.9174450931       -2.5932348929        0.1192998899
 C          3.9774980819       -3.4868723073        0.1540757161
 C          3.6847380403       -4.8384788345        0.0899200111
 C          2.3717306917       -5.2929563717        0.0014977161
 C          1.3088380034       -4.4063161978       -0.0110598351
 C          1.5786277103       -3.0476364633        0.0541634012
 C          0.7499273609       -1.8713322762        0.0864981757
 C         -0.6132832132       -1.6711853617        0.0379011957
 C         -1.1209043181       -0.3668427227        0.0807919980
 C         -2.5547859145       -0.1304446473        0.0433969739
 C         -3.1307413202        0.9626423114        0.7097299834
 C         -4.4848551076        1.1888448952        0.6771532036
 C         -5.3360053271        0.3311215172       -0.0352492568
 N         -6.7012387016        0.5591487220       -0.0773814344
 C         -7.2065816585        1.8653139107       -0.0311295457
 C         -8.3729106337        2.1420904700        0.6842461044
 C         -8.8748427833        3.4285222271        0.7190963429
 C         -8.2250984263        4.4533774499        0.0480882844
 C         -7.0664230162        4.1825970626       -0.6637274242
 C         -6.5576041256        2.8991749191       -0.7088499775
 C         -7.5969711882       -0.5152865166       -0.1693959624
 C         -8.7347796015       -0.4145554651       -0.9714970791
 C         -9.6184995602       -1.4729720997       -1.0547570561
 C         -9.3821427842       -2.6414997221       -0.3467163571
 C         -8.2542577050       -2.7444766547        0.4530924653
 C         -7.3650766195       -1.6913704137        0.5460754106
 C         -4.7697676555       -0.7635275378       -0.7054133194
 C         -3.4155771989       -0.9863341177       -0.6615861978
 C         -0.2198226609        0.7186253269        0.1458726927
 C          1.1423642187        0.5406543016        0.1806402846
 C          1.6379978222       -0.7629774693        0.1740086154
 C          5.1388443226       -0.5792332171       -0.6054189967
 C          6.2594826597        0.2043653656       -0.5164360432
 H          8.6443572365       -0.4190307425        0.3274489849
 H         10.8301893032       -0.9327314243       -0.6534587474
 H         12.2889852870        0.8832418970       -1.4774805747
 H         11.5425595897        3.2345338639       -1.2840785047
 H          9.3312516981        3.7491010619       -0.3125961942
 H          5.3598888092        2.1491318089        2.1080886308
 H          3.3487769134        0.7205602476        1.9712636741
 H          4.9962853395       -3.1413758531        0.2384497591
 H          4.4930814033       -5.5540882430        0.1139481342
 H          2.1831892710       -6.3550655916       -0.0479453046
 H          0.2916210034       -4.7631575510       -0.0633946272
 H         -1.2804234108       -2.5179475648       -0.0011885532
 H         -2.5048578661        1.6164702844        1.2971572566
 H         -4.9069221631        2.0176407197        1.2257454351
 H         -8.8719462318        1.3468851071        1.2179154784
 H         -9.7744960752        3.6341058555        1.2796020107
 H         -8.6198672015        5.4574385306        0.0790937926
 H         -6.5604422964        4.9746666177       -1.1953640906
 H         -5.6659775230        2.6854536372       -1.2793884036
 H         -8.9118869140        0.4904515537       -1.5333875516
 H        -10.4928179481       -1.3883749845       -1.6826816678
 H        -10.0750629579       -3.4661060641       -0.4156395273
 H         -8.0698162160       -3.6480609416        1.0147149220
 H         -6.4957087243       -1.7648714859        1.1825088608
 H         -5.4061192533       -1.4171709404       -1.2830966344
 H         -3.0030578122       -1.8116218840       -1.2208869600
 H         -0.6110676913        1.7239319918        0.1251282664
 H          1.8133354981        1.3859139950        0.1943308000
 H          5.0491353293       -1.3060399848       -1.4002630064
 H          7.0408557401        0.0984211280       -1.2537915638
