  90
 
 C          7.0215561057       -3.7728441161       -2.1276655422
 C          6.4213791063       -3.4998035571       -0.9080506453
 C          6.7107350147       -2.3287382965       -0.2349471985
 C          7.5999974349       -1.4090147792       -0.7898776554
 N          7.9056004250       -0.2246406883       -0.1041313207
 C          7.0257421021        0.6398421518        0.5436678671
 C          5.6050794019        0.6457775337        0.3729339114
 C          4.9583144811        0.1338653002       -0.7706300158
 C          3.5901675499        0.1642595576       -0.8764860438
 C          2.8126050324        0.7114037204        0.1494663950
 N          1.3973672726        0.7073605528        0.0514380227
 C          0.7188010890       -0.4913935637        0.0379245554
 C          1.3924100579       -1.7113364254        0.1630010133
 C          0.7101392218       -2.9052589632        0.0841502307
 C         -0.6662620854       -2.9115576035       -0.1352047291
 C         -1.3587983459       -1.7238401922       -0.2166002312
 C         -0.6955363522       -0.4977816443       -0.0950627866
 N         -1.3851673998        0.6944169021       -0.1109346172
 C         -2.8010865141        0.6843789133       -0.1990300171
 C         -3.4443620039        1.2232754672       -1.3216711903
 C         -4.8110934310        1.1838417185       -1.4132379461
 C         -5.5951240381        0.5964932512       -0.3973869847
 C         -7.0170705909        0.5843703371       -0.5548871821
 N         -7.6589398729        1.4548263107       -1.3190195276
 C         -8.9834223268        1.2000878564       -1.1573962587
 C        -10.0946558341        1.8215188839       -1.7261388232
 C        -11.3436357141        1.3359200626       -1.3966484930
 C        -11.5041566554        0.2526362176       -0.5331912976
 C        -10.4155988628       -0.3775276237        0.0479961660
 C         -9.1610374965        0.1165202762       -0.2585224841
 N         -7.8914237355       -0.2676754113        0.1166334024
 C         -7.5824068003       -1.4371336736        0.8259994498
 C         -8.1754085572       -1.6824280162        2.0617946374
 C         -7.8838879137       -2.8480403288        2.7469170745
 C         -6.9999998843       -3.7717478863        2.2125058247
 C         -6.4096003891       -3.5286537176        0.9818151181
 C         -6.7008555089       -2.3722349028        0.2845810440
 C         -4.9344199486        0.0982144020        0.7443292327
 C         -3.5656250448        0.1388496637        0.8374577106
 C         -0.7095665781        1.8928203104       -0.0476047409
 C         -1.3935808186        3.1120868539        0.0014237051
 C         -0.7061482122        4.3056631223       -0.0044532635
 C          0.6862070744        4.3116073374       -0.0751112148
 C          1.3840721429        3.1241800341       -0.0749779776
 C          0.7107807751        1.8991027658       -0.0195301105
 C          3.4422258746        1.2653326938        1.2725713717
 C          4.8084429722        1.2373486319        1.3761375435
 N          7.6604940336        1.5238740268        1.2976295356
 C          8.9864859059        1.2654122508        1.1532765705
 C         10.0926679967        1.8961999804        1.7214653843
 C         11.3443415003        1.4035243132        1.4133135311
 C         11.5122696744        0.3044936010        0.5714566707
 C         10.4288803169       -0.3352557825       -0.0088572809
 C          9.1718746332        0.1653303722        0.2762748238
 C          8.2029425349       -1.6843862566       -2.0144182197
 C          7.9132505731       -2.8644611551       -2.6751864415
 H          6.7964085523       -4.6909814681       -2.6488929324
 H          5.7312949126       -4.2077970076       -0.4735650295
 H          6.2575406698       -2.1143939795        0.7220281697
 H          5.5411355205       -0.2579240301       -1.5892371058
 H          3.1054837453       -0.2189184722       -1.7625880391
 H          2.4582479309       -1.7089730515        0.3213364622
 H          1.2479183001       -3.8347377990        0.1816921074
 H         -1.1958614044       -3.8459423223       -0.2306753824
 H         -2.4247215550       -1.7305684225       -0.3744547281
 H         -2.8535005301        1.6500219664       -2.1185455655
 H         -5.3217016517        1.5893816615       -2.2720691102
 H         -9.9683433413        2.6509248319       -2.4047208470
 H        -12.2227369075        1.7989878964       -1.8223498997
 H        -12.4997813743       -0.1043946824       -0.3130573749
 H        -10.5474567927       -1.2236064646        0.7064559410
 H         -8.8488876982       -0.9504511331        2.4831822003
 H         -8.3455679292       -3.0311672646        3.7061267488
 H         -6.7733359861       -4.6785408442        2.7526176667
 H         -5.7254389183       -4.2487210796        0.5579379060
 H         -6.2545646621       -2.1809751781       -0.6804969152
 H         -5.5067546325       -0.2911203147        1.5713702469
 H         -3.0702323001       -0.2343735055        1.7218894941
 H         -2.4705626722        3.1094887270        0.0422756289
 H         -1.2513922374        5.2351797848        0.0330526015
 H          1.2232176736        5.2457152645       -0.1173647045
 H          2.4610236617        3.1307226375       -0.1160968690
 H          2.8414836666        1.6944083907        2.0607545191
 H          5.3084323507        1.6542250981        2.2358102739
 H          9.9605816471        2.7383224950        2.3830966843
 H         12.2196737842        1.8735013267        1.8391982601
 H         12.5096587747       -0.0574047760        0.3678941877
 H         10.5662749677       -1.1936515480       -0.6499988871
 H          8.8826812858       -0.9645549796       -2.4465842923
 H          8.3827907957       -3.0711673406       -3.6257323198
