  64
 
 C         -0.7205599050        1.5973893906        2.2398672155
 C         -1.4147838979        0.6759851549        1.2264806689
 C         -1.7710046104       -0.6234188551        1.9533766438
 C         -3.7745932871        0.8038367927       -0.0031974366
 C         -4.9880072202        1.5459180861        0.4577521754
 C         -6.1985627784        0.7089259221        0.2826263497
 C         -6.1384470922       -0.5737374282       -0.0656704980
 C         -4.8914927889       -1.3685742399       -0.3870348842
 C         -2.7091362711       -0.5553373980       -1.5516484118
 N         -2.0118758857       -1.7023624420       -1.9623581576
 C         -0.8926319309       -2.0100335244       -1.1924783332
 C         -0.4367804023       -3.3288873383       -1.3345655117
 C          0.5625832526       -3.8623131957       -0.5556784328
 C          1.1276400110       -3.0731258893        0.4259402624
 C          0.7530424884       -1.7400179530        0.5196513365
 C          1.4284866250       -0.9392058009        1.5632573520
 O          1.5446641156       -1.3008489602        2.7123582265
 C          4.1554968285        1.2182281153       -0.0094306662
 C          5.5559209648        1.0120062206       -0.3556265594
 C          6.0903776999       -0.0817313064       -0.9299587636
 C          5.3900594896       -1.3198890371       -1.1648239744
 C          4.4581759285       -1.7847281811       -0.3313867226
 C          4.1598863914       -1.0544582983        0.9442842944
 C         -0.2291934504       -1.1463172681       -0.2885851404
 C          3.6853213850        2.4976533004       -0.3243536451
 C          3.4029813322        0.1789204305        0.5505013135
 C          1.9789769434        0.3649307969        1.0349344154
 C          0.9615680633        0.9426230792        0.1198275646
 C          1.2216371234        2.1359855618       -0.5832056702
 C          2.3657078533        2.8940189385       -0.6359350671
 S         -0.1857830288        2.6474183381       -1.5097278835
 C         -0.9746789070        1.1081046800       -1.2189842503
 C         -2.0166679798        0.6953987890       -1.9177781892
 C         -3.7529627706       -0.4497222726       -0.7164516966
 C         -4.0047164097        1.0324560536        1.4717895528
 C         -2.7021478329        1.4367247689        0.8250044739
 C         -0.4239938475        0.3631983571       -0.0346230531
 H         -1.4562960730        1.9346966145        2.9680565590
 H          0.0599997687        1.0719835637        2.7817627547
 H         -0.2962311025        2.4762812249        1.7591435510
 H         -2.3583177009       -1.2870322300        1.3244618325
 H         -0.8816055500       -1.1547721805        2.2722619489
 H         -2.3341226920       -0.3935247309        2.8542421236
 H         -5.0887879361        2.6143937848        0.2967145672
 H         -7.1576131749        1.1754450498        0.4579544834
 H         -7.0562236202       -1.1415447607       -0.1456241752
 H         -5.0990991050       -2.0388997959       -1.2260436987
 H         -2.5574766898       -2.5127536200       -2.2251917863
 H         -0.9295686084       -3.9507908045       -2.0694070871
 H          0.8687503429       -4.8886598145       -0.6872941918
 H          1.8625197778       -3.4658156283        1.1110141029
 H          6.1709296413        1.9023043733       -0.3021762724
 H          7.1040228412       -0.0239181187       -1.3064490054
 H          5.6687554883       -1.8797236096       -2.0475588883
 H          3.8998437446       -2.6832479636       -0.5480016919
 H          3.6135422982       -1.6838994251        1.6394313490
 H          4.4399337259        3.2312261245       -0.5743796865
 H          5.1085644491       -0.7594322457        1.4093743977
 H          2.1018796790        1.0640814085        1.8818632156
 H          2.2698528263        3.8578311046       -1.1182211150
 H         -2.4154037001        1.2615204635       -2.7454716924
 H         -4.6514892156       -2.0060101095        0.4755984246
 H         -4.2155901735        0.3548955212        2.2701331556
 H         -2.5265309280        2.5014875562        0.6775671727
