75

C      5.447788   -4.662125    0.229723
C      4.481523   -4.129946    1.079840
C      4.050574   -2.811317    0.911252
C      4.578978   -2.001552   -0.109977
N      4.133274   -0.639275   -0.284624
C      5.082518    0.397189   -0.615974
C      4.761372    1.402074   -1.546028
C      5.678333    2.407270   -1.864519
C      6.931923    2.425438   -1.257980
C      7.270329    1.439820   -0.333931
C      6.353679    0.434101   -0.015920
C      2.733285   -0.309872   -0.123782
C      1.729649   -1.167738   -0.638579
C      0.371062   -0.873783   -0.497491
C      0.019916    0.293179    0.166349
C      1.001387    1.164874    0.686978
C      2.348810    0.869652    0.546161
C      0.352250    2.292190    1.323354
C      0.893369    3.393396    1.966547
C      0.023124    4.350139    2.499809
C     -1.369420    4.202236    2.387913
C     -1.918842    3.095129    1.740570
C     -1.050173    2.147511    1.212537
C     -1.404922    0.840528    0.453284
C     -2.119674    1.167849   -0.864061
C     -1.521276    2.059235   -1.791826
C     -2.133247    2.378762   -3.000329
C     -3.357906    1.814293   -3.311174
C     -3.962247    0.934587   -2.411139
C     -3.363878    0.592189   -1.175283
N     -4.008310   -0.317178   -0.263843
C     -5.274735   -0.891620   -0.619198
C     -5.329358   -2.105878   -1.320104
C     -6.561262   -2.663054   -1.664808
C     -7.744089   -2.012329   -1.312371
C     -7.699445   -0.804477   -0.615368
C     -6.469390   -0.244287   -0.268970
C     -3.406275   -0.659110    0.998524
C     -4.046177   -1.545513    1.897115
C     -3.483483   -1.891625    3.127065
C     -2.260099   -1.359699    3.495055
C     -1.607706   -0.485835    2.630279
C     -2.163463   -0.121705    1.376487
C      5.553546   -2.558989   -0.956796
C      5.983974   -3.877859   -0.788625
H      5.782234   -5.687958    0.360341
H      4.062751   -4.737891    1.877460
H      3.307261   -2.411399    1.596966
H      3.794915    1.396510   -2.044714
H      5.412338    3.172145   -2.589352
H      7.645166    3.207237   -1.505713
H      8.246299    1.452866    0.144054
H      6.631691   -0.315306    0.721523
H      2.013482   -2.071664   -1.173986
H     -0.386017   -1.539543   -0.900413
H      3.100584    1.532160    0.963162
H      1.966779    3.521089    2.060029
H      0.429274    5.221499    3.008540
H     -2.025883    4.959337    2.810573
H     -2.994626    2.978170    1.652290
H     -0.557637    2.516303   -1.571898
H     -1.651896    3.064759   -3.691674
H     -3.849161    2.052612   -4.250487
H     -4.923577    0.517264   -2.700461
H     -4.407643   -2.612432   -1.594479
H     -6.597945   -3.603787   -2.207775
H     -8.703247   -2.447693   -1.581673
H     -8.621799   -0.299020   -0.341706
H     -6.433983    0.696645    0.274000
H     -5.008310   -1.989218    1.653285
H     -4.006061   -2.575510    3.790122
H     -1.810994   -1.620344    4.449327
H     -0.646012   -0.082081    2.943459
H      5.972003   -1.970500   -1.769970
H      6.734726   -4.291126   -1.456973
