  53
 
 C         -7.5356106324       -2.5282206016        0.1785354703
 O         -6.2056019178       -2.9847145993        0.2450400690
 C         -5.1972268604       -2.0832365866        0.1814190077
 C         -3.9025553409       -2.6329323658        0.2665529554
 C         -2.7769409546       -1.8472199213        0.2061134961
 C         -2.9436365664       -0.4729407173        0.0455228845
 C         -4.2420467105        0.0947512833       -0.0004053345
 C         -5.3706017804       -0.7068873024        0.0597575583
 C         -4.0598242803        1.5179166384       -0.0947305146
 C         -4.9345129646        2.5890683337       -0.1874635199
 C         -4.4091104608        3.8649726148       -0.3032469181
 C         -3.0334271406        4.0735337484       -0.3481849745
 C         -2.1405637232        3.0193999795       -0.2574128346
 C         -2.6605593765        1.7422151945       -0.1046961119
 N         -2.0021572581        0.5274508335       -0.0164903561
 C         -0.6265473412        0.3512263475       -0.0083181567
 C         -0.0243679818       -0.6501588122       -0.7971383229
 C          1.3278260376       -0.8210320972       -0.7940658689
 C          2.1842472112       -0.0083967421        0.0046375482
 C          3.5902570134       -0.1856139708        0.0081985293
 C          4.5096621500        0.8979083858        0.2575322912
 C          4.0997623916        2.2313906694        0.3893259219
 N          3.8415804173        3.3514660204        0.4705493250
 C          5.8824172782        0.6703441791        0.2451250057
 C          6.8653970754        1.7739906578        0.4733102079
 N          6.3858385098       -0.5377995442        0.0156884128
 C          5.5995855555       -1.5836170362       -0.2163299612
 C          6.2792377087       -2.8968260713       -0.4398137431
 C          4.2134004863       -1.4635610345       -0.2367265535
 C          3.4865339875       -2.6538668084       -0.3727469537
 N          2.9597367899       -3.6752541528       -0.4565693680
 C          1.5523340692        0.9926943747        0.7985238380
 C          0.2006619381        1.1682793086        0.7888910489
 H         -8.1564849706       -3.4202303054        0.2411921205
 H         -7.7732492744       -1.8627699821        1.0143898740
 H         -7.7358494867       -2.0134620865       -0.7663573283
 H         -3.8234474480       -3.7007525423        0.3891884710
 H         -1.7963312253       -2.2860692992        0.2982195185
 H         -6.3491127668       -0.2567675411        0.0190444351
 H         -6.0019860066        2.4297742338       -0.1761718833
 H         -5.0746135693        4.7118953904       -0.3741534343
 H         -2.6533437546        5.0769855213       -0.4628226880
 H         -1.0773550664        3.1895927482       -0.3203869593
 H         -0.6428647696       -1.2364949087       -1.4604652859
 H          1.7641521910       -1.5474248962       -1.4603310509
 H          6.7499864617        2.5481697028       -0.2843964703
 H          6.7003855606        2.2375595737        1.4450448879
 H          7.8745981857        1.3740752183        0.4298888695
 H          7.3559226933       -2.7591970092       -0.3938244592
 H          5.9737347816       -3.6164972889        0.3188395541
 H          6.0070652753       -3.3074367759       -1.4112513075
 H          2.1513501007        1.5856380253        1.4705329772
 H         -0.2557171077        1.8914600176        1.4483803481
