  102
 
 C          7.8185410120       -0.7506257092       -2.3763016201
 C          8.0839721016       -1.5631206921       -1.1454331484
 C          9.2299427213       -2.3462383502       -1.0748174244
 C          9.4975819221       -3.1366141700        0.0274293853
 C          8.6002889656       -3.1696800291        1.0817288687
 C          7.4563845655       -2.3971520464        1.0260558052
 C          7.1958727773       -1.5744084816       -0.0675094816
 C          5.9527376175       -0.7726702145       -0.0509784526
 C          4.7394977733       -1.4476997647       -0.0303871909
 C          3.5220809546       -0.7728656635        0.0106090854
 N          2.3499644004       -1.4179526766        0.0183982478
 C          1.2046935630       -0.7459732321        0.0689001737
 C         -0.0435715733       -1.4408310284        0.0840038371
 C         -0.0465771480       -2.8451678068        0.0216197178
 C         -1.2168631641       -3.5530147488        0.0129325298
 C         -2.4372267688       -2.8623369778        0.0870523238
 N         -3.6544060324       -3.5887039316        0.0663644397
 C         -3.9618334342       -4.4663930577        1.1012927966
 C         -3.1707791262       -4.5721518102        2.2416622960
 C         -3.5029541429       -5.4589193689        3.2522186703
 C         -4.6335830766       -6.2485845920        3.1484795811
 C         -5.4480216792       -6.1368816462        2.0320617742
 C         -5.1228314745       -5.2511102562        1.0198691297
 O         -5.9842316456       -5.1729896415       -0.0448241274
 C         -5.6837091950       -4.2791390537       -1.0416235622
 C         -6.5718123070       -4.1972142537       -2.0999299589
 C         -6.3234197463       -3.3322107697       -3.1542726077
 C         -5.1750325793       -2.5619982199       -3.1490189873
 C         -4.2813513795       -2.6403341634       -2.0938975646
 C         -4.5256561430       -3.4853098756       -1.0149664902
 C         -2.4563429786       -1.4868418275        0.1664765696
 C         -1.2721279866       -0.7360088790        0.1525688470
 C         -1.2598449498        0.7038545838        0.1860664503
 C         -2.4318608015        1.4725259639        0.2278354042
 C         -2.3907592507        2.8497785726        0.2083330482
 N         -3.5969769193        3.5940635419        0.2042937801
 C         -4.4618848697        3.5378012733       -0.8859198006
 C         -4.2166784179        2.7321657186       -1.9943802477
 C         -5.1040246214        2.6995948896       -3.0571774956
 C         -6.2467070898        3.4780523074       -3.0409829410
 C         -6.4950935475        4.3057206320       -1.9571520770
 C         -5.6132688880        4.3416325197       -0.8910176389
 O         -5.9129657255        5.2014112906        0.1354543868
 C         -5.0565894344        5.2355282624        1.2065130797
 C         -5.3801568502        6.0886884953        2.2468723866
 C         -4.5706212049        6.1558667961        3.3703588110
 C         -3.4471173162        5.3536371318        3.4528355258
 C         -3.1172009961        4.4986034901        2.4145822501
 C         -3.9026850818        4.4385357293        1.2670854622
 C         -1.1589902650        3.5230690694        0.1755717209
 C         -0.0001742978        2.7963580533        0.1601581515
 C         -0.0198652838        1.3909557052        0.1549670290
 C          1.2175101441        0.6771073292        0.1060410159
 N          2.3733538555        1.3308969759        0.0864168986
 C          3.5355895040        0.6667541076        0.0437109454
 C          4.7625905284        1.3235484299        0.0279251377
 C          5.9672741976        0.6319382431       -0.0255280014
 C          7.2401717506        1.3778813057        0.0169646123
 C          8.1556295747        1.0741650245        1.0226206777
 C          9.3580066067        1.7462964511        1.1239123507
 C          9.6641780771        2.7417212503        0.2115092571
 C          8.7615637028        3.0514080347       -0.7889154812
 C          7.5466140973        2.3855908097       -0.9049876249
 C          6.6229069148        2.7588906470       -2.0281571359
 H          8.2125355568       -1.2555788362       -3.2560757806
 H          6.7519582341       -0.5854320202       -2.5103625508
 H          8.3061652041        0.2205878749       -2.2958495405
 H          9.9207399207       -2.3378571220       -1.9065929510
 H         10.3973844655       -3.7339211662        0.0597252981
 H          8.7906006843       -3.7943060190        1.9426877005
 H          6.7509854938       -2.4127433670        1.8462272895
 H          4.7228893361       -2.5276401945       -0.0567210343
 H          0.9087021949       -3.3445104043       -0.0343181682
 H         -1.2164848282       -4.6303814675       -0.0545400547
 H         -2.2923965299       -3.9535419556        2.3357212151
 H         -2.8706811753       -5.5253895987        4.1240917148
 H         -4.8916767193       -6.9432921445        3.9319092718
 H         -6.3446627292       -6.7269985072        1.9270911095
 H         -7.4494070547       -4.8238688472       -2.0797101898
 H         -7.0219725617       -3.2723683832       -3.9736464191
 H         -4.9626796537       -1.8951107799       -3.9701655913
 H         -3.3808133382       -2.0475007899       -2.1098013588
 H         -3.4144657494       -0.9966167837        0.2346469801
 H         -3.3979968699        0.9950222986        0.2672562898
 H         -3.3203712542        2.1337238424       -2.0271707188
 H         -4.8910819541        2.0622637214       -3.9013428337
 H         -6.9405778885        3.4537391204       -3.8661097099
 H         -7.3678282018        4.9383187894       -1.9194524387
 H         -6.2717537985        6.6890139495        2.1579785745
 H         -4.8271845658        6.8257907122        4.1755705149
 H         -2.8188794046        5.3851963304        4.3295778599
 H         -2.2451083349        3.8689750674        2.4924275247
 H         -1.1408027263        4.6021930826        0.1564321341
 H          0.9632809428        3.2822271608        0.1339128058
 H          4.7588743443        2.4011438306        0.0877796608
 H          7.9083762732        0.3069486965        1.7415420615
 H         10.0520276287        1.4944043670        1.9126016049
 H         10.6022330307        3.2736510411        0.2783384623
 H          9.0027317719        3.8255724603       -1.5045467543
 H          7.1954130934        2.9944491635       -2.9236671639
 H          6.0451709906        3.6447271034       -1.7623209907
 H          5.9261702060        1.9562568461       -2.2541472627
