  64
 
 C         -7.7898006070        0.4235362949       -0.4567704952
 C         -6.6150454480        0.5333288176        0.5337157807
 C         -7.1247800548        0.9861968754        1.9151626461
 C         -5.6376823872        1.5675079646        0.0155496002
 C         -6.0581938098        2.8753679725       -0.1811595113
 C         -5.2033836379        3.8564733966       -0.6491897015
 C         -3.8848139105        3.5355991925       -0.9318150085
 C         -3.4388261273        2.2468321731       -0.7464601553
 C         -4.3027271584        1.2484620102       -0.2750284190
 N         -3.8250900118       -0.0325206726       -0.1038702449
 C         -2.4580130356       -0.3071039047       -0.4033585767
 C         -2.0779968322       -0.6798450260       -1.6935832318
 C         -0.7615360612       -0.9487088105       -1.9693761233
 C          0.2294966160       -0.8375364802       -0.9707243418
 C          1.5884173008       -1.1897644582       -1.3182863762
 O          1.8237369624       -1.8885270102       -2.3500103116
 C          2.7134846421       -0.7449881785       -0.5133347002
 C          3.9090102540       -1.4911305573       -0.5710236604
 C          5.0064543008       -1.1264678885        0.1641054532
 C          4.9675670376        0.0352521043        0.9386889399
 S          6.3403032622        0.5206066452        1.9437581267
 C          7.7240069695        0.3268025497        0.8517739143
 C          8.9651588485        0.0650759549        1.4216860167
 C         10.0762766011       -0.0701854960        0.6117454632
 C          9.9552902551        0.0538457067       -0.7635352602
 C          8.7182280398        0.3257502066       -1.3253252858
 C          7.6007028332        0.4696909053       -0.5242899696
 C          3.8135988108        0.8179671512        0.9637980206
 C          2.7083470229        0.4451335295        0.2367478628
 C         -0.1780242183       -0.4966678866        0.3315360028
 C         -1.4990042358       -0.2310062251        0.6064453146
 C         -4.6263996726       -1.0564003580        0.3538225017
 C         -4.0860819501       -2.3421918135        0.4960871997
 C         -4.8587646307       -3.3849693182        0.9540867664
 C         -6.1883506727       -3.1672787307        1.2800558922
 C         -6.7264619560       -1.9014949695        1.1370355475
 C         -5.9729975536       -0.8308082981        0.6765315389
 H         -8.2871302542        1.3818744636       -0.5753960218
 H         -7.4247555877        0.1025260780       -1.4304588985
 H         -8.5223444533       -0.2993971774       -0.1095647532
 H         -7.8445720303        0.2768528080        2.3134296246
 H         -7.6044625795        1.9586417426        1.8507530393
 H         -6.2919933368        1.0590184206        2.6120290612
 H         -7.0810435415        3.1432481388        0.0354559276
 H         -5.5636325995        4.8636809683       -0.7912846945
 H         -3.2051768219        4.2905013069       -1.2964986655
 H         -2.4132394944        1.9946358520       -0.9652394280
 H         -2.8308252413       -0.7553322098       -2.4648698264
 H         -0.4502807116       -1.2476019233       -2.9585428283
 H          3.9248510361       -2.3798622619       -1.1830777931
 H          5.9018174245       -1.7311123793        0.1475210353
 H          9.0461788767       -0.0339478252        2.4935528868
 H         11.0386353216       -0.2779489373        1.0552222027
 H         10.8233711924       -0.0576159053       -1.3954937345
 H          8.6200714468        0.4329446475       -2.3952965093
 H          6.6398803921        0.6926160126       -0.9636292852
 H          3.8058960660        1.7287311973        1.5445603708
 H          1.8452333079        1.0927819851        0.2177513379
 H          0.5408079814       -0.4859754474        1.1362517317
 H         -1.8096186277        0.0238907120        1.6098981632
 H         -3.0519487575       -2.5109201389        0.2409722961
 H         -4.4247414914       -4.3676633998        1.0568458361
 H         -6.8025591207       -3.9775103328        1.6415955938
 H         -7.7639651900       -1.7503521459        1.3932301135
