  89
 
 C         -6.0006732959       -2.8213970707        0.1285710018
 C         -4.7073866146       -3.4112638828        0.6998647164
 C         -4.9904314343       -3.8860659636        2.1332106410
 C         -4.2993333970       -4.6068207716       -0.1739222020
 C         -3.5679222707       -2.4058585274        0.7291821341
 C         -2.3067332226       -2.8148613768        1.2359259716
 C         -1.2476285122       -1.9654524047        1.2786393536
 C         -1.3554993228       -0.6246353389        0.8265201977
 C         -0.2694460924        0.2551541916        0.8480964822
 C          1.0436928958       -0.2007087205        1.3619674888
 C          1.3448792363       -0.0953648823        2.7161608340
 C          2.5799108413       -0.5045069898        3.1882207363
 C          3.5227281413       -1.0278129364        2.3218369673
 C          3.2302170891       -1.1344023641        0.9650103313
 N          4.1817617604       -1.6646034187        0.0787496584
 C          5.4975677831       -1.2618480737       -0.0283711787
 C          6.1596808376       -0.2255917921        0.6154552532
 C          7.4885209191       -0.0142203776        0.3009748254
 C          8.1493825750       -0.8065547568       -0.6359695562
 C          7.4901795192       -1.8246983614       -1.2959286108
 C          6.1528520155       -2.0553597998       -0.9987113036
 C          5.1752688726       -2.9850301237       -1.4919945546
 C          5.2182823504       -4.0124762456       -2.4260941287
 C          4.0713536690       -4.7456484983       -2.6574712890
 C          2.8943581910       -4.4729944811       -1.9627485043
 C          2.8267249311       -3.4571792442       -1.0284090955
 C          3.9713333383       -2.7047572119       -0.8043488600
 C          1.9921008403       -0.7174870532        0.4890919011
 C         -0.4157239452        1.5719931003        0.3909934375
 C          0.6682140277        2.4827011283        0.4068192900
 C          0.5524454321        3.7798885519       -0.0122416703
 C          1.7651526283        4.6981647253        0.0315525795
 C          2.2581811567        4.8057979018        1.4825183193
 C          2.8741258087        4.1019880028       -0.8488814042
 C          1.4598626639        6.1106934346       -0.4757344042
 C         -0.7164292823        4.2123147957       -0.4660848685
 C         -1.7857033287        3.3692374600       -0.5024598395
 C         -1.6828991247        2.0162378888       -0.0930655635
 C         -2.7705833240        1.1307927952       -0.1212191931
 C         -4.0768451481        1.5905460494       -0.6360283159
 C         -4.2402375797        1.8701734009       -1.9922949681
 C         -5.4594824398        2.2889882513       -2.4839712144
 C         -6.5422118561        2.4397853321       -1.6141751184
 C         -7.7919607759        2.8668401535       -2.1108548141
 N         -8.8088116050        3.2157121712       -2.5149573340
 C         -6.3869819694        2.1668698110       -0.2528495903
 C         -5.1632262987        1.7451982225        0.2246739546
 C         -2.6218105772       -0.1885592882        0.3318082462
 C         -3.6934446711       -1.1193110821        0.2894417264
 H         -6.7785672305       -3.5824319547        0.1321791238
 H         -6.3487053531       -1.9837347979        0.7290541711
 H         -5.8614112564       -2.4894472071       -0.8981012215
 H         -4.1240233863       -4.3754895091        2.5697187803
 H         -5.8168509647       -4.5937395217        2.1352963662
 H         -5.2586828985       -3.0404214535        2.7638223181
 H         -4.0824020767       -4.2752569608       -1.1877700130
 H         -3.4165760795       -5.1046288018        0.2182054482
 H         -5.1089121665       -5.3326754778       -0.2144850545
 H         -2.1797854483       -3.8261208505        1.5914907486
 H         -0.2953138858       -2.3023804960        1.6627597191
 H          0.6080411590        0.3107191747        3.3934201461
 H          2.8081102293       -0.4224425897        4.2407922805
 H          4.4804507700       -1.3647075149        2.6892801055
 H          5.6532279730        0.4025662156        1.3329407643
 H          8.0265704510        0.7851184790        0.7897401128
 H          9.1898736796       -0.6122395842       -0.8517594195
 H          7.9988681609       -2.4288071201       -2.0325228294
 H          6.1333570001       -4.2324034371       -2.9557695627
 H          4.0838261168       -5.5477742603       -3.3809966503
 H          2.0156212743       -5.0708085978       -2.1570791262
 H          1.9131465766       -3.2634865772       -0.4870320028
 H          1.7721582433       -0.7828877950       -0.5665428401
 H          1.6125323694        2.1108751408        0.7739804965
 H          1.4704769270        5.2027804066        2.1202355820
 H          3.1158459432        5.4731212859        1.5375554501
 H          2.5556974002        3.8357438644        1.8719295724
 H          3.7458262192        4.7532222219       -0.8452850771
 H          2.5264165618        3.9976468688       -1.8750358706
 H          3.1807765348        3.1221330364       -0.4921545665
 H          2.3634584511        6.7152487198       -0.4258402072
 H          0.7010096041        6.5928768168        0.1367210660
 H          1.1265814314        6.0929025396       -1.5111712857
 H         -0.8539971258        5.2312886373       -0.7888975947
 H         -2.7422130348        3.7363341186       -0.8456336047
 H         -3.4014674372        1.7488615004       -2.6620002681
 H         -5.5862543139        2.5009223512       -3.5357836381
 H         -7.2274328340        2.2886751383        0.4150587793
 H         -5.0382591579        1.5351830788        1.2768398235
 H         -4.6283948618       -0.7679404178       -0.1136584872
