  60
 
 C          7.8686966918       -0.0000293487       -0.4295928869
 O          6.8951337999        0.0000007208       -1.4427832133
 C          5.5769074312        0.0000159365       -1.0900515899
 C          4.6665400793        0.0000204760       -2.1432358097
 C          3.3115668595        0.0000291395       -1.8795895249
 C          2.8336448161        0.0000340096       -0.5786697823
 C          1.3806283734        0.0000301937       -0.2868299507
 C          0.6996086833        1.2144317075       -0.1453592269
 C          1.3626437040        2.4617157034       -0.2846612250
 C          0.6901021968        3.6360445295       -0.1443158411
 C         -0.6902290456        3.6360373956        0.1439239120
 C         -1.3627304627        2.4617012923        0.2844028999
 C         -0.6996555001        1.2144241655        0.1452421176
 C         -1.3806335078        0.0000170002        0.2868520250
 C         -2.8336485069        0.0000098494        0.5786791991
 C         -3.3115848039        0.0000649384        1.8795925296
 C         -4.6665621592        0.0000600236        2.1432239865
 C         -5.5769182000       -0.0000008258        1.0900301033
 O         -6.8951500457        0.0000006850        1.4427469469
 C         -7.8687017568       -0.0000465112        0.4295455827
 C         -5.1164114801       -0.0000584154       -0.2228128324
 C         -3.7503390183       -0.0000536665       -0.4803578326
 O         -3.2040421549       -0.0001084212       -1.7297588166
 C         -4.0573153786       -0.0001705995       -2.8444570174
 C         -0.6996143254       -1.2143838737        0.1453863838
 C         -1.3626470538       -2.4616671336        0.2846932143
 C         -0.6901062978       -3.6359968699        0.1443492036
 C          0.6902237119       -3.6359908346       -0.1438960925
 C          1.3627251493       -2.4616555606       -0.2843792618
 C          0.6996494466       -1.2143778466       -0.1452159644
 C          3.7503476138        0.0000364160        0.4803577472
 O          3.2040642906        0.0000493182        1.7297649028
 C          4.0573491020        0.0000643290        2.8444539766
 C          5.1164165327        0.0000267626        0.2227966517
 H          7.7982116463       -0.8940863323        0.1992918018
 H          8.8286877218       -0.0000538459       -0.9437023424
 H          7.7982612709        0.8940268389        0.1992985718
 H          5.0429126156        0.0000145067       -3.1529734821
 H          2.6031277092        0.0000295740       -2.6943432165
 H          2.4197555972        2.4570934250       -0.5077273217
 H          1.2065697138        4.5790802807       -0.2527424835
 H         -1.2067273600        4.5790683975        0.2522452801
 H         -2.4198413009        2.4570690646        0.5074730643
 H         -2.6031551400        0.0001130644        2.6943548608
 H         -5.0429466830        0.0001030791        3.1529574299
 H         -8.8286989271       -0.0000274360        0.9436438567
 H         -7.7982368039        0.8939830502       -0.1993804239
 H         -7.7982312469       -0.8941299219       -0.1993032792
 H         -5.8166625581       -0.0001070683       -1.0413587298
 H         -4.6896041043        0.8940902539       -2.8711973211
 H         -3.4024714317       -0.0002050431       -3.7144414678
 H         -4.6895851347       -0.8944474161       -2.8711124305
 H         -2.4197578251       -2.4570446289        0.5077638552
 H         -1.2065725234       -4.5790327552        0.2527809677
 H          1.2067222330       -4.5790216688       -0.2522180295
 H          2.4198352439       -2.4570240606       -0.5074535394
 H          4.6896318599        0.8943309947        2.8711290209
 H          4.6896245052       -0.8942066350        2.8711592889
 H          3.4025142980        0.0000816127        3.7144451259
 H          5.8166768399        0.0000269849        1.0413344291
