  66
 
 O          0.3428963190        4.5959841207        0.4305159310
 S          0.3293736676        3.6191040786       -0.6360114511
 O          0.4422595292        4.1151975373       -1.9902613145
 C          1.6538946642        2.4377401354       -0.3471923195
 C          2.0484430166        1.6123762326       -1.3844376117
 C          3.0397325728        0.6735205376       -1.1629663709
 C          3.6222459534        0.5677702534        0.0985435812
 N          4.6465014103       -0.3923726131        0.3443151758
 C          5.9638178613        0.0057408553        0.1169835770
 C          6.2249546373        1.2569326180       -0.4454260173
 C          7.5183713104        1.6876616625       -0.6832080756
 C          8.5934546866        0.8742518080       -0.3779082597
 C          8.3554662939       -0.3712263054        0.1766337891
 C          7.0623815560       -0.7984239232        0.4310484426
 S          6.8923626971       -2.3829153456        1.2084095513
 C          5.1642413013       -2.7033452367        0.9710180996
 C          4.7406454561       -4.0002779539        1.2116940857
 C          3.3996962246       -4.3335097309        1.1327730513
 C          2.4837291476       -3.3499199952        0.8102372357
 C          2.9061757214       -2.0579506441        0.5499321610
 C          4.2552169097       -1.7036119755        0.6145651908
 C          3.2167225418        1.4040412629        1.1327143643
 C          2.2245613969        2.3436275898        0.9071106212
 C         -1.1550259195        2.6254878376       -0.5024157782
 C         -1.7444277061        2.1184804351       -1.6459568635
 C         -2.8686700408        1.3226804779       -1.5372133732
 C         -3.3960158123        1.0270150536       -0.2779920982
 N         -4.5323659678        0.2266935245       -0.1646723356
 C         -5.6562806956        0.5167991133        0.5923176659
 C         -5.9470476090        1.6418346089        1.3503668581
 C         -7.1758007518        1.6952937625        1.9821924591
 C         -8.1025343796        0.6624120519        1.8602123041
 C         -7.8294933632       -0.4470947039        1.0844727320
 C         -6.6012272884       -0.5226629646        0.4403876963
 C         -6.0104387451       -1.4891981362       -0.4448885559
 C         -6.4390591862       -2.7141459150       -0.9399163415
 C         -5.5950606007       -3.4232914165       -1.7719196385
 C         -4.3324049018       -2.9326300728       -2.0964612402
 C         -3.8844801488       -1.7160835294       -1.6153042013
 C         -4.7389854667       -0.9864570010       -0.8013881853
 C         -2.7839886838        1.5421656573        0.8674464697
 C         -1.6639872214        2.3427060213        0.7521706161
 H          1.5903176053        1.7286474707       -2.3534766262
 H          3.3698800234        0.0232554455       -1.9590768811
 H          5.4023980241        1.9079351542       -0.6962514438
 H          7.6766736999        2.6653855114       -1.1124456503
 H          9.6050911307        1.1997047525       -0.5626775636
 H          9.1743710575       -1.0264045512        0.4335451197
 H          5.4793378651       -4.7412294714        1.4786172441
 H          3.0813748657       -5.3448638538        1.3309115218
 H          1.4305623293       -3.5803043862        0.7564995348
 H          2.1726004136       -1.3075158844        0.3018792337
 H          3.6816102975        1.3162012534        2.1027619485
 H          1.8959883456        3.0163986435        1.6832600921
 H         -1.3290341426        2.3787311084       -2.6067082010
 H         -3.3569210929        0.9459319561       -2.4224628455
 H         -5.2473906280        2.4592049438        1.4359182729
 H         -7.4237370687        2.5601178201        2.5800370685
 H         -9.0508321176        0.7404220246        2.3711702260
 H         -8.5552103150       -1.2385733223        0.9731732719
 H         -7.4104304111       -3.1022510205       -0.6729919501
 H         -5.9103896618       -4.3763808022       -2.1701907194
 H         -3.6867372293       -3.5171004377       -2.7354593260
 H         -2.8961723343       -1.3570899005       -1.8582850038
 H         -3.1815508701        1.2987521964        1.8404136109
 H         -1.1816551725        2.7606265767        1.6213154388
