  88
 
 O          6.6920554077        3.5015569081        1.6384732958
 C          6.5002890242        2.4316316988        0.9944163754
 C          7.6593328833        1.7008501697        0.4623245408
 C          7.6950381878        0.3043089503        0.3995286209
 C          8.8196539947       -0.3407569600       -0.0743741446
 C          9.9299916897        0.3844043895       -0.4810408818
 C          9.9156287867        1.7682498433       -0.3864611859
 C          8.7991209780        2.4223719270        0.0897668168
 C          5.1694173302        1.9372209252        0.7689479227
 C          4.1148228025        2.4704427816        1.5509113909
 C          2.8246956340        2.0503029803        1.3830636763
 C          2.5132209345        1.0952525481        0.4042618798
 N          1.1968494928        0.6461700278        0.2382880986
 C          0.0786876430        1.4391006718        0.1424552120
 C         -0.0350967449        2.8244988466        0.1311589816
 C         -1.2916151117        3.3767271653        0.0163090889
 C         -2.4422484351        2.5748583110       -0.0978685381
 N         -3.7007654940        3.1731243159       -0.1924142932
 C         -4.8077970255        2.5682802679        0.4105865862
 C         -4.6746333432        1.9081261236        1.6330981890
 C         -5.7698328165        1.3076403918        2.2217322407
 C         -7.0124067344        1.3598691938        1.6106357214
 C         -7.1512708115        2.0181269663        0.3993246340
 C         -6.0609359915        2.6157673707       -0.2017373257
 C         -3.8585151847        4.3720463611       -0.8965260495
 C         -3.1384500895        4.6017241101       -2.0692635434
 C         -3.2961524366        5.7874955786       -2.7593945587
 C         -4.1733037928        6.7562355404       -2.2989470763
 C         -4.8925572581        6.5315176455       -1.1360795461
 C         -4.7377534717        5.3518500467       -0.4348606571
 C         -2.3281152792        1.1863618919       -0.1229118379
 C         -1.0718232105        0.6188412470       -0.0072772990
 C         -0.6032742733       -0.7358790855       -0.0061202210
 C         -1.2404114712       -1.9598605786       -0.1104430013
 C         -0.4762349322       -3.1220531626       -0.0318247688
 N         -1.0911135951       -4.3727624210       -0.1260475795
 C         -2.3604834483       -4.5720746228        0.4255151732
 C         -2.7180068037       -3.9478889089        1.6214934677
 C         -3.9750258361       -4.1431728816        2.1585549330
 C         -4.8908813419       -4.9652665613        1.5217961287
 C         -4.5393243565       -5.5913172292        0.3367614757
 C         -3.2874419463       -5.3968632306       -0.2130407315
 C         -0.4390330217       -5.4255478693       -0.7768224891
 C          0.3297932057       -5.1827467800       -1.9156371099
 C          0.9749849233       -6.2242125031       -2.5528676214
 C          0.8609853240       -7.5190590789       -2.0730079507
 C          0.0963666394       -7.7656691721       -0.9440202777
 C         -0.5478516584       -6.7304908317       -0.2954383754
 C          0.9156650958       -3.0421109355        0.1586095854
 C          1.5631606232       -1.8303803637        0.2519413264
 C          0.8063464639       -0.6688564249        0.1537111515
 C          3.5358121135        0.6029251353       -0.4183317142
 C          4.8303656621        1.0195767124       -0.2503747509
 H          6.8547310739       -0.2731876936        0.7561627018
 H          8.8362473039       -1.4210242882       -0.1165156602
 H         10.8054682194       -0.1272857764       -0.8530852191
 H         10.7838545173        2.3386960161       -0.6845727530
 H          8.7802644882        3.4985382942        0.1724469564
 H          4.3688341592        3.1978631497        2.3065739920
 H          2.0399427374        2.4234797243        2.0253551918
 H          0.8355634153        3.4557677085        0.2113456152
 H         -1.4053788520        4.4499639795        0.0237650392
 H         -3.7101200346        1.8786760434        2.1180620123
 H         -5.6539602080        0.8032242679        3.1695105776
 H         -7.8665634841        0.8919292086        2.0755073847
 H         -8.1149128889        2.0595809634       -0.0862764351
 H         -6.1691091697        3.1168682538       -1.1524057137
 H         -2.4635533876        3.8419504992       -2.4349299152
 H         -2.7359376002        5.9527418895       -3.6675809903
 H         -4.2952632800        7.6805208885       -2.8424372348
 H         -5.5732328901        7.2842082819       -0.7670847959
 H         -5.2893948936        5.1829227645        0.4782888590
 H         -3.2045730080        0.5676760572       -0.2427389944
 H         -2.3087496315       -2.0155731076       -0.2543297196
 H         -2.0005015952       -3.3182441530        2.1266286333
 H         -4.2380754558       -3.6569943363        3.0862254512
 H         -5.8712177354       -5.1177269901        1.9464712984
 H         -5.2485207390       -6.2298295972       -0.1686850587
 H         -3.0203221003       -5.8753947468       -1.1437683859
 H          0.4090798825       -4.1755080590       -2.2972234880
 H          1.5643921220       -6.0243935394       -3.4353133589
 H          1.3648815499       -8.3305089213       -2.5752174401
 H          0.0077193843       -8.7709661976       -0.5598798523
 H         -1.1329238178       -6.9222930562        0.5920120677
 H          1.4794249042       -3.9580175368        0.2499679606
 H          2.6273079024       -1.7876636372        0.4228540803
 H          3.2840745800       -0.0805899010       -1.2171534728
 H          5.5911874362        0.6718907323       -0.9322455270
