  105
 
 C          2.2442942391       -9.2158077858       -2.1347036374
 C          2.9310154360       -9.3983106743       -0.9447403254
 C          3.4136944099       -8.3131011013       -0.2411733733
 C          3.2201778906       -7.0175850408       -0.7262265449
 N          3.6992268259       -5.9147137238       -0.0193437941
 C          4.9022246273       -5.9876363347        0.6830342141
 C          5.0592457523       -5.2971897045        1.8869501628
 C          6.2542955015       -5.3617749796        2.5747112204
 C          7.3093563161       -6.1136656834        2.0821957239
 C          7.1598590292       -6.8001619268        0.8875024237
 C          5.9710143051       -6.7387201549        0.1885334227
 C          2.9642173015       -4.7214681059       -0.0135527515
 C          1.5672680823       -4.7480071735        0.0756501385
 C          0.8480293778       -3.5795883422        0.0797560187
 C          1.4964733956       -2.3345999542        0.0000551106
 C          0.7447304460       -1.1169907083        0.0097844316
 N         -0.6207642855       -1.1843754279        0.1063383507
 C         -1.2886606734       -0.0448982132        0.0871926748
 C         -2.7470819618       -0.0971280889        0.1452484792
 C         -3.4999427709        1.0757255232        0.0931584915
 C         -4.8744225031        1.0289369732        0.1418261130
 C         -5.5376793053       -0.1972290056        0.2502855106
 N         -6.9298124691       -0.2470275403        0.3024471001
 C         -7.6479738901        0.7677165401        0.9479696432
 C         -8.8620371761        1.2136271986        0.4263816405
 C         -9.5712047566        2.2091984731        1.0697285612
 C         -9.0817925679        2.7795066531        2.2335002211
 C         -7.8747040772        2.3418551498        2.7538984980
 C         -7.1617280503        1.3415093139        2.1224871052
 C         -7.6201856888       -1.3120799689       -0.2900702808
 C         -8.7574852003       -1.8412867262        0.3193221529
 C         -9.4403569938       -2.8863315596       -0.2718725588
 C         -8.9998093910       -3.4239134132       -1.4702411750
 C         -7.8687368684       -2.9035289097       -2.0779081669
 C         -7.1832985139       -1.8534646303       -1.4988871026
 C         -4.7821113850       -1.3724708017        0.3052957775
 C         -3.4080476949       -1.3207257789        0.2500806156
 N         -0.7069021606        1.1394264814        0.0296401734
 C          0.6608980607        1.1673007578       -0.0519171064
 C          1.3223402462        2.4345570341       -0.1180378277
 C          0.5854164261        3.6315866580       -0.0891813250
 C          1.2180392299        4.8477946839       -0.1459599030
 C          2.6130768418        4.9188091189       -0.2403829470
 N          3.2594018641        6.1608745617       -0.3006981356
 C          2.6980208423        7.1961525016       -1.0482677323
 C          2.0148203561        6.9198540763       -2.2347320287
 C          1.4500691409        7.9448055414       -2.9667425598
 C          1.5569348244        9.2580397625       -2.5364825639
 C          2.2332166176        9.5384114024       -1.3596498551
 C          2.7975409562        8.5208885949       -0.6167549573
 C          4.4573756848        6.3502224553        0.3885555795
 C          5.4661755308        7.1552874684       -0.1454248685
 C          6.6510632115        7.3318606947        0.5405662457
 C          6.8562513079        6.7087232409        1.7614298468
 C          5.8610478010        5.9040338159        2.2935158439
 C          4.6702486289        5.7243956488        1.6189112580
 C          3.3543584783        3.7303376993       -0.2729324124
 C          2.7231970082        2.5144750285       -0.2100418162
 N          1.3678563685        0.0479463990       -0.0784214228
 C          2.8998097435       -2.3164826660       -0.0873213605
 C          3.6176953570       -3.4848619100       -0.0963116668
 C          2.5264967113       -6.8400088338       -1.9254458226
 C          2.0438716239       -7.9322430755       -2.6178252149
 H          1.8670646276      -10.0672233197       -2.6803267114
 H          3.0841071556      -10.3944461069       -0.5562988192
 H          3.9341062366       -8.4577699515        0.6942619535
 H          4.2343865753       -4.7199325919        2.2774520535
 H          6.3606485482       -4.8269843261        3.5069467254
 H          8.2414062399       -6.1631171665        2.6241838284
 H          7.9797792256       -7.3813068753        0.4917655358
 H          5.8632399222       -7.2615252067       -0.7505448486
 H          1.0628112343       -5.7007414793        0.1528912586
 H         -0.2279192641       -3.5947767645        0.1559200144
 H         -2.9846779608        2.0192599684        0.0023664881
 H         -5.4519310919        1.9402301916        0.0871261255
 H         -9.2404694680        0.7768053272       -0.4862221364
 H        -10.5089118256        2.5476987431        0.6542028944
 H         -9.6373673125        3.5594124801        2.7316157874
 H         -7.4885518538        2.7767102632        3.6639704812
 H         -6.2261925575        0.9940146648        2.5355463789
 H         -9.0969044404       -1.4297390267        1.2586195181
 H        -10.3182580607       -3.2890909710        0.2114530293
 H         -9.5344072477       -4.2425156974       -1.9275554311
 H         -7.5215798649       -3.3126014901       -3.0152443886
 H         -6.3080491097       -1.4418514445       -1.9796252240
 H         -5.2872300854       -2.3225771272        0.4007954984
 H         -2.8212162823       -2.2247380995        0.2989056383
 H         -0.4886525138        3.5722414507       -0.0083427398
 H          0.6457463514        5.7638149268       -0.1068887627
 H          1.9403535637        5.8983352308       -2.5768891930
 H          0.9286147364        7.7176736692       -3.8848308862
 H          1.1154406627       10.0566556849       -3.1128514884
 H          2.3139058647       10.5579601900       -1.0123443042
 H          3.3097666346        8.7410301082        0.3084304156
 H          5.3157886689        7.6290975582       -1.1044298652
 H          7.4245568286        7.9536337481        0.1142955845
 H          7.7851326343        6.8480099698        2.2931153585
 H          6.0107757155        5.4180161899        3.2462715392
 H          3.8914971630        5.1059986910        2.0398978964
 H          4.4303111592        3.7838743524       -0.3595279384
 H          3.2894318184        1.5969487113       -0.2420753941
 H          3.3980569898       -1.3624425996       -0.1585649631
 H          4.6950996038       -3.4640190232       -0.1788579700
 H          2.3794013807       -5.8412380123       -2.3087783468
 H          1.5134996486       -7.7810297451       -3.5463905470
