  52
 
 O         -1.3381894226       -0.0348247385        2.1464791649
 C         -2.5156687308       -0.8024190346        2.0185885597
 C         -3.4252828038       -0.3625742715        0.8954006763
 C         -4.8006891060       -0.3655710291        1.0730347455
 C         -5.6499513473        0.0399749323        0.0582422196
 C         -5.1234443546        0.4680274982       -1.1490784914
 C         -3.7545396402        0.4838068549       -1.3365010631
 C         -2.8906034990        0.0629269476       -0.3276671914
 C         -1.4349082397        0.0722404548       -0.5269898067
 C         -0.7292903141        1.3124448154       -0.5958247624
 C         -1.3927044971        2.5393709378       -0.6120025528
 C         -0.6874893061        3.7447698823       -0.6320311166
 C          0.6878249634        3.7357922341       -0.6036138154
 C          1.3761529562        2.5221196483       -0.5552906271
 C          0.6968225325        1.3041054730       -0.5672823828
 C          1.3893003213        0.0585182954       -0.4800667468
 C          2.8514256198        0.0420715449       -0.3269342846
 C          3.6631258593        0.4225386693       -1.3937081769
 C          5.0398500975        0.3985789668       -1.2819112196
 C          5.6242720565        0.0032008885       -0.0907617181
 C          4.8253648440       -0.3588638399        0.9796144857
 C          3.4411933023       -0.3500143146        0.8808856527
 C          2.5983276250       -0.7310900257        2.0804045309
 O          1.6551947707        0.2485477596        2.4488057694
 C          0.6840638401       -1.1799627792       -0.5531926518
 C          1.3536619321       -2.4032406708       -0.6170533064
 C          0.6507903105       -3.6063240916       -0.7018809835
 C         -0.7250170928       -3.5983736803       -0.7408667998
 C         -1.4173360278       -2.3862911201       -0.6919055944
 C         -0.7383637673       -1.1730252101       -0.5876019821
 H         -1.5768565597        0.8842263110        2.3126188772
 H         -3.0767312690       -0.8003276960        2.9636909511
 H         -2.1677130900       -1.8249075780        1.8324400533
 H         -5.2107121258       -0.6891611428        2.0195099907
 H         -6.7184887366        0.0277384626        0.2120841136
 H         -5.7797621684        0.7887365759       -1.9445456566
 H         -3.3372026325        0.8034216380       -2.2805051523
 H         -2.4724058158        2.5614721893       -0.6045667042
 H         -1.2315960083        4.6773163142       -0.6562501800
 H          1.2429937308        4.6618046387       -0.6041165551
 H          2.4533403549        2.5271216238       -0.4942312196
 H          3.1970157424        0.7207978333       -2.3221469092
 H          5.6546404621        0.6883169060       -2.1214397460
 H          6.6995426299       -0.0153677611        0.0075493253
 H          5.2843029572       -0.6518215009        1.9132345071
 H          3.2597571973       -0.8535748978        2.9448549707
 H          2.1063851132       -1.6956141198        1.8913865983
 H          0.8159385422        0.0922693368        1.9972577750
 H          2.4336970129       -2.4170949376       -0.6061843859
 H          1.1953619592       -4.5380449847       -0.7406049023
 H         -1.2776223419       -4.5234999769       -0.8118973357
 H         -2.4965067355       -2.3879306228       -0.7445678728
