  59
 
 C          3.8609396630       -3.3076741591        2.3651890925
 C          2.8033225725       -2.4342999018        2.6100261883
 C          2.7182639700       -1.2055065692        1.9820597771
 C          3.7196924011       -0.8633503275        1.0841095997
 C          4.8134482339       -1.7318055857        0.8555689767
 C          4.8769701912       -2.9630635551        1.4964526381
 C          5.6863982862       -1.0527876039       -0.0577363393
 C          6.8952053275       -1.3360011435       -0.6736301856
 C          7.4214909660       -0.3695042678       -1.5175561475
 C          6.7310440872        0.8223316842       -1.7149682121
 N          5.5756010047        1.1234310149       -1.1413541521
 C          5.0785601106        0.2011316274       -0.3326615694
 N          3.8902609043        0.2986569233        0.3482036308
 C          2.9935648810        1.3766365747        0.2618746176
 C          3.4879441644        2.6845601344        0.3030531907
 C          2.6327153843        3.7623663114        0.2088387795
 C          1.2721831248        3.5259780684        0.0872611305
 S          0.0229771262        4.7443012611       -0.0438964817
 C         -1.2069079448        3.5051247709       -0.1618017106
 C         -2.5671770908        3.7186094698       -0.3192518167
 C         -3.4062578759        2.6262263394       -0.3977991734
 C         -2.8967211427        1.3265644745       -0.2979955100
 N         -3.7655262611        0.2255846988       -0.3732880416
 C         -5.0130343587        0.1080481350        0.2200401156
 C         -5.6512099536        0.9513263577        1.1189439363
 C         -6.8994036066        0.5792603023        1.5826720436
 C         -7.5046313673       -0.6085691907        1.1776308902
 C         -6.8631629892       -1.4692008549        0.3095063656
 C         -5.6072392810       -1.1160341187       -0.1686730291
 C         -4.6649100803       -1.7688498427       -1.0307540679
 C         -4.6233093039       -2.9615295857       -1.7353117203
 C         -3.4783307693       -3.2260061192       -2.4718745927
 C         -2.4359962139       -2.3043886602       -2.4797142854
 N         -2.4453102595       -1.1563790129       -1.8185121839
 C         -3.5384969423       -0.9079519899       -1.1146894566
 C         -1.5341708915        1.1146701309       -0.1555478952
 C         -0.6751428013        2.2054579875       -0.0960079266
 C          0.7589083989        2.2185626778        0.0426919007
 C          1.6345799037        1.1413658107        0.1178714159
 H          3.8886213622       -4.2603674127        2.8727217855
 H          2.0330629135       -2.7213374062        3.3105375293
 H          1.9048841809       -0.5308781869        2.1996838434
 H          5.7081273207       -3.6288938385        1.3196629894
 H          7.4073101257       -2.2719105613       -0.5037165338
 H          8.3603161321       -0.5323955816       -2.0233375519
 H          7.1247138409        1.5874812139       -2.3711336219
 H          4.5503418383        2.8398151037        0.3950990472
 H          3.0123015456        4.7716410354        0.2345211987
 H         -2.9587808784        4.7211023280       -0.3915916108
 H         -4.4628365013        2.7728017776       -0.5585080124
 H         -5.1855711214        1.8619673450        1.4619623159
 H         -7.4144221010        1.2232419415        2.2800427192
 H         -8.4823750318       -0.8613848899        1.5596758810
 H         -7.3193981549       -2.4007912460        0.0104462832
 H         -5.4490643019       -3.6575836000       -1.7122238980
 H         -3.3873636154       -4.1392892868       -3.0387726724
 H         -1.5343893452       -2.4939715351       -3.0475206027
 H         -1.1495722213        0.1094797899       -0.1074565847
 H          1.2569644448        0.1339817435        0.0409377039
