  86
 
 C         -8.1475350187       -2.0502428242       -0.2841584876
 C         -7.0786543409       -2.6084387633       -1.2232707413
 N         -5.7764597801       -2.5929527512       -0.6137605647
 C         -5.2405748960       -3.5939132747        0.1626259355
 C         -5.7553768445       -4.8433839067        0.4799295260
 C         -4.9927852411       -5.6736046150        1.2785789155
 C         -3.7454148570       -5.2791254798        1.7577193156
 C         -3.2279704034       -4.0368145613        1.4505885390
 C         -3.9764197623       -3.1839916398        0.6504641542
 C         -3.7630682294       -1.8552275009        0.1517054054
 C         -2.7330498155       -0.9392290335        0.2925323495
 C         -2.8457684511        0.3057998580       -0.3143189451
 C         -1.7610576872        1.2904328005       -0.1745026650
 C         -1.9944312096        2.6012034437        0.0693541414
 C         -0.9321452721        3.6174123512       -0.0036548059
 C         -0.0345087736        3.6442605606       -1.0698075683
 C          0.9508475773        4.6105941454       -1.1327495962
 C          1.0544351177        5.5675836323       -0.1363630333
 C          0.1569994978        5.5601051521        0.9185431086
 C         -0.8329924640        4.5977701250        0.9820768190
 C         -3.3291324108        3.1133007768        0.4193189868
 C         -3.8046609529        4.2855594029       -0.1655463985
 C         -5.0497184189        4.7833064104        0.1696912850
 C         -5.8328232659        4.1273920876        1.1048151976
 C         -5.3604768088        2.9723334558        1.7068405516
 C         -4.1197075428        2.4678860093        1.3687625447
 C         -0.4006856572        0.7553311477       -0.3253607377
 C         -0.1158664204       -0.1657841448       -1.3332328124
 C          1.1564845821       -0.6755469993       -1.4860220545
 C          2.1874005698       -0.2824089634       -0.6332287424
 C          3.5479671749       -0.7993463153       -0.8121270673
 C          3.7747333276       -2.1295416732       -1.1751888235
 C          5.0603193350       -2.6096015729       -1.3488098002
 C          6.1398226511       -1.7606751439       -1.1741631703
 C          5.9288766726       -0.4453483701       -0.8121582659
 C          4.6507772560        0.0372837767       -0.6232834538
 S          7.3241359480        0.6595325926       -0.5808950868
 O          7.8655019454        1.0336779825       -1.8511270224
 O          6.9042776600        1.7197208092        0.2983079851
 C          8.5214918492       -0.3426409104        0.3097119063
 C          9.2310753873        0.2148223818        1.3584190597
 C         10.1644424227       -0.5548066859        2.0359062143
 C         10.3736378462       -1.8767572894        1.6712281743
 C          9.6503298910       -2.4337589061        0.6276005327
 C          8.7295056219       -1.6573374227       -0.0529828821
 S          7.8060837319       -2.3711393526       -1.4201985839
 O          8.3282483131       -1.8733175158       -2.6558221722
 O          7.7864384265       -3.7988647295       -1.2362265898
 C          1.8977388429        0.6194242314        0.3912667423
 C          0.6241284456        1.1223104813        0.5475604051
 C         -3.9795086305        0.6044813432       -1.0843567815
 C         -5.0116454735       -0.2947450653       -1.2427699310
 C         -4.9078409930       -1.5298533395       -0.6155233235
 H         -7.9106656926       -1.0234915944       -0.0146185991
 H         -9.1207743107       -2.0710028810       -0.7672192761
 H         -8.1945634010       -2.6434399689        0.6262061376
 H         -7.3207666175       -3.6387415902       -1.4974754427
 H         -7.0392581995       -2.0143889644       -2.1406368009
 H         -6.7216809525       -5.1649604934        0.1210853602
 H         -5.3730938262       -6.6504248448        1.5391925032
 H         -3.1807117346       -5.9579624207        2.3792994288
 H         -2.2621439888       -3.7292947030        1.8228259380
 H         -1.8609564853       -1.1811269145        0.8825627837
 H         -0.1216788104        2.9088902924       -1.8563836626
 H          1.6399009106        4.6198262853       -1.9645104950
 H          1.8278401853        6.3194670763       -0.1854181266
 H          0.2283620371        6.3082716489        1.6946503782
 H         -1.5308853400        4.5908134251        1.8076651740
 H         -3.1949600944        4.7976251909       -0.8967042029
 H         -5.4100604155        5.6878046949       -0.2986308274
 H         -6.8047312784        4.5180806374        1.3682003984
 H         -5.9615677528        2.4642746755        2.4470954971
 H         -3.7499371649        1.5737868114        1.8486467486
 H         -0.9015920568       -0.4662762907       -2.0113215726
 H          1.3636930567       -1.3606397621       -2.2946966154
 H          2.9348956747       -2.7957566874       -1.3021025844
 H          5.2534114509       -3.6376802648       -1.6122026224
 H          4.5307551827        1.0724448629       -0.3441264860
 H          9.0327439099        1.2411323770        1.6246244079
 H         10.7268465685       -0.1230339744        2.8496537524
 H         11.0990677540       -2.4752765813        2.2007589900
 H          9.7774404769       -3.4617984476        0.3267789245
 H          2.6746661370        0.9064403490        1.0838975602
 H          0.4125051834        1.8036894310        1.3577558388
 H         -4.0359963170        1.5643924013       -1.5752396349
 H         -5.8715245614       -0.0347689832       -1.8415495606
