82
 xtb: 6.7.1 (edcfbbe)
C          -10.01360446558179        0.87350634829203       -0.91414780784905
C           -9.13418792097196        0.00077193033774       -0.00018909479560
C          -10.01537633385597       -0.87077062805125        0.91319586407813
C           -8.28545481966934       -0.90931729146430       -0.86811525714963
C           -8.90274457318662       -1.80839172078626       -1.72645856307858
C           -8.18030137261035       -2.66179315661737       -2.54001326116604
C           -6.79833258508936       -2.62401908017240       -2.50235308699655
C           -6.15862202344149       -1.74056797859609       -1.65882850396065
C           -6.88739336363888       -0.87682978757151       -0.83601786569318
N           -6.21628350071097       -0.00081496931103        0.00032959335972
C           -4.79409557411649       -0.00100793527150        0.00005947933752
C           -4.09889374894700        0.82548149711162       -0.87571395274477
C           -2.71870953310837        0.82668312684560       -0.87802384538241
C           -2.01674262516020       -0.00088798651190       -0.00012511008680
C           -0.60372557274544       -0.00063376768763        0.00003481715923
C            0.60367873079347       -0.00031030118274        0.00005421322206
C            2.01669477968461        0.00002729372768        0.00004503462149
C            2.71877636867379       -0.77040752817023       -0.93188105093333
C            4.09895439497459       -0.76960226406818       -0.92905282046436
C            4.79407832124080        0.00044005974143        0.00031341483603
N            6.21622993798499        0.00052535613397        0.00044765374982
C            6.88702319757899       -0.87100400846775        0.84178537644152
C            6.15797582735149       -1.73621993397516        1.66282295597909
C            6.79737302332518       -2.61375029528345        2.51275730640373
C            8.17932556767564       -2.64559013968705        2.55712727642383
C            8.90205390658688       -1.79514903797411        1.74074341299048
C            8.28507431719753       -0.90212611110730        0.87586118078860
C            9.13416910583904       -0.00031526781631       -0.00033312553592
C           10.01375077828460       -0.88116321542891       -0.90634397551160
C           10.01519878640223        0.87980748905204        0.90497091869724
C            8.28512032588269        0.90218649485642       -0.87585922884731
C            8.90213479827541        1.79498320520881       -1.74094922793711
C            8.17944452933560        2.64602292893967       -2.55674378348658
C            6.79750018546079        2.61502595901298       -2.51156485891701
C            6.15806779932334        1.73767827424497       -1.66147083031508
C            6.88707304864713        0.87184966378960       -0.84104316237496
C            4.09856737533137        0.77031971805938        0.92951439107105
C            2.71838754652549        0.77069360424551        0.93208689621302
C           -2.71853108706882       -0.82859944974749        0.87777253923039
C           -4.09871337535141       -0.82752190097910        0.87566326839137
C           -6.88673812145321        0.87580251541437        0.83658025260194
C           -6.15733157531759        1.73867416218440        1.65974089509895
C           -6.79638893731446        2.62267455576019        2.50318329861690
C           -8.17832765041193        2.66189978796005        2.54039839920931
C           -8.90139947875586        1.80936551540816        1.72649362616443
C           -8.28477518261331        0.90975210411349        0.86823743533476
H          -10.64972794021920        0.26051023186820       -1.54381165836391
H           -9.38436710931895        1.48934137257321       -1.55446929900014
H          -10.64928117726196        1.53221104760894       -0.32587351110946
H          -10.65163342269359       -1.52853843935102        0.32412359828245
H          -10.65119284675733       -0.25686090027079        1.54206870947286
H           -9.38754244898024       -1.48742285522259        1.55361071398291
H           -9.98081031296605       -1.84618448053340       -1.76972312489009
H           -8.69299800208374       -3.34344567267724       -3.20148930562086
H           -6.21438449044415       -3.27703933475214       -3.13402172916687
H           -5.07961011189936       -1.71374263526886       -1.63615562007158
H           -4.65001086068530        1.46398006987557       -1.55013637802403
H           -2.17296338046786        1.46747335407589       -1.55457047635088
H            2.17319150162462       -1.44068543474295       -1.58054814135891
H            4.65022692084675       -1.43688142456292       -1.57603895235805
H            5.07913992583881       -1.71224827944217        1.63693491361001
H            6.21348380567498       -3.27224066043933        3.13852100603464
H            8.69208455642197       -3.33689925076987        3.20851558689277
H            9.98029367104752       -1.84263829758204        1.77397635170076
H           10.64938532847318       -0.26392640789949       -1.54366834472979
H            9.38459833714304       -1.49339170279239       -1.55027201094361
H           10.64989700436721       -1.53201156465767       -0.32196053985960
H            9.38729824333388        1.49252881148034        1.54898701269583
H           10.65107458341915        0.26203143100938        1.54119508176204
H           10.65147518264112        1.53009792267255        0.31948816361723
H            9.98011186798651        1.84170938965155       -1.77538189313574
H            8.69175544518278        3.33708892630731       -3.20862252997839
H            6.21316984688950        3.27404408917511       -3.13669445766046
H            5.07898058239342        1.71439785389208       -1.63461653091777
H            4.64958992013390        1.43768928881440        1.57699515200502
H            2.17255823876282        1.44067520531642        1.58122194709970
H           -2.17280582654305       -1.46931790604381        1.55466485789401
H           -4.64983541530918       -1.46604687947177        1.55031498769232
H           -5.07847768866784        1.71080299098625        1.63747148226942
H           -6.21221507589270        3.27504402642938        3.13510021547630
H           -8.69078946391544        3.34412036780415        3.20149289731089
H           -9.97958396340628        1.84838361202511        1.76902427565006
