  97
 
 F         -3.3881042343       -4.3980914269       -3.7967364050
 C         -4.4506811490       -4.6788353061       -3.0150176846
 F         -5.4232062912       -5.0874377773       -3.8469383226
 F         -4.1044119093       -5.7436935906       -2.2798230078
 C         -4.8627594307       -3.4961488539       -2.1866234311
 C         -4.4793456716       -3.4020653070       -0.8554938453
 C         -4.8426071017       -2.2923475925       -0.1173212938
 C         -5.5833354333       -1.2739187177       -0.7108440211
 N         -5.9085373914       -0.1300457220        0.0303124979
 C         -4.9873127147        0.7265376607        0.6066842415
 C         -3.5451801524        0.5622901250        0.5354112444
 C         -2.8899106890        0.0845842043       -0.5984787367
 C         -1.5157275993       -0.0403044358       -0.6085571334
 C         -0.7543272926        0.3065252901        0.5060571899
 C          0.7057671465        0.1569790949        0.4965320970
 C          1.3791567192       -0.3247724445        1.6192306498
 C          2.7498646715       -0.4646363849        1.6126113533
 C          3.4946305697       -0.1119181200        0.4861170165
 C          4.9342372226       -0.2928249019        0.5292791995
 N          5.5195683429       -1.2478782275        1.2086099559
 C          6.8564143108       -1.1442663824        0.9788110041
 C          7.7920708104       -2.0521369906        1.6251891549
 C          7.3453518436       -3.3143341251        2.0141058820
 C          8.2045529829       -4.2011783217        2.6327072735
 C          9.5198158375       -3.8405102961        2.8769033802
 C          9.9660741961       -2.5814409275        2.5101345612
 C          9.1105816737       -1.6889580693        1.8921700343
 C          7.0931630866       -0.0834627220        0.1189846209
 C          8.3277133703        0.4377930172       -0.4525925362
 C          9.2288727367       -0.4321115129       -1.0658348862
 C         10.3977451879        0.0516040558       -1.6204844913
 C         10.6829143625        1.4070278576       -1.5747433160
 C          9.7954103357        2.2764663156       -0.9635721828
 C          8.6247177443        1.7985690388       -0.4048459301
 N          5.8563264474        0.4594778752       -0.1536379517
 C          5.6200186078        1.5975676287       -0.9446910354
 C          4.9021388979        2.6664727387       -0.4181540357
 C          4.6777861102        3.7885774256       -1.1933627421
 C          5.1740926244        3.8547205833       -2.4851339261
 C          5.8924763221        2.7913579089       -3.0056946774
 C          6.1159844115        1.6604031256       -2.2420658204
 C          2.8240287543        0.3506534430       -0.6453856834
 C          1.4505279678        0.4817113683       -0.6357885686
 C         -1.4126023419        0.8080149325        1.6290891711
 C         -2.7840832226        0.9413662034        1.6420942977
 N         -5.5657334430        1.7279838065        1.2139315020
 C         -6.9033197101        1.5550915754        1.0442357060
 C         -7.9540033125        2.4068428755        1.4851910532
 C         -7.6837310473        3.5892876922        2.1818058004
 C         -8.7095711264        4.4159927651        2.5658886986
 C        -10.0221854512        4.0691463816        2.2515096836
 C        -10.2993197939        2.9057990231        1.5724561562
 C         -9.2794022557        2.0288769734        1.1717950816
 C         -9.5403620293        0.7732456625        0.4896375173
 C        -10.8475678131        0.3310297081        0.2409941680
 C        -11.1078775266       -0.8794104721       -0.3561297909
 C        -10.0592777427       -1.7202073312       -0.7150014586
 C         -8.7637435500       -1.3206861927       -0.4984582633
 C         -8.4751972335       -0.0740727306        0.0757107184
 C         -7.1528101954        0.3946288310        0.3157296976
 C         -5.9607268900       -1.3716586827       -2.0497804141
 C         -5.6020473183       -2.4821771256       -2.7861469675
 H         -3.9066112312       -4.1947740315       -0.4002756400
 H         -4.5517151942       -2.2058164785        0.9180734785
 H         -3.4483795258       -0.1690721309       -1.4872817538
 H         -1.0257786014       -0.4288513945       -1.4890920813
 H          0.8157075030       -0.6116919807        2.4949830658
 H          3.2729298878       -0.8499683863        2.4738428942
 H          6.3171391229       -3.5783768041        1.8207665904
 H          7.8495542433       -5.1786765440        2.9261775800
 H         10.1933407796       -4.5348734153        3.3578630359
 H         10.9871439807       -2.2905166605        2.7116784955
 H          9.4620020543       -0.7027754867        1.6272269751
 H          9.0014991145       -1.4875577943       -1.1017352644
 H         11.0881508363       -0.6306818862       -2.0942348333
 H         11.5959484309        1.7835672613       -2.0114311736
 H         10.0161798933        3.3329353911       -0.9186309014
 H          7.9438939573        2.4809244259        0.0838542875
 H          4.5244268736        2.6081593548        0.5920395462
 H          4.1187207729        4.6165190309       -0.7841680119
 H          5.0009484753        4.7349362771       -3.0854681853
 H          6.2794205860        2.8391973305       -4.0123964247
 H          6.6694557833        0.8251521534       -2.6444729683
 H          3.3721313110        0.5922419961       -1.5439639362
 H          0.9479064469        0.8582195984       -1.5146695918
 H         -0.8368707639        1.1136890040        2.4901454762
 H         -3.2935253670        1.3397276772        2.5056269626
 H         -6.6526653176        3.8249651578        2.3945795647
 H         -8.5065769950        5.3309170742        3.1024153461
 H        -10.8324452128        4.7210173377        2.5445584880
 H        -11.3301746567        2.6813841733        1.3492275927
 H        -11.6847449169        0.9446091184        0.5314710317
 H        -12.1284604471       -1.1854135017       -0.5318273031
 H        -10.2614282327       -2.6844477192       -1.1568955017
 H         -7.9566423679       -1.9879865473       -0.7565689214
 H         -6.5325628467       -0.5751710436       -2.5015557207
 H         -5.8909086069       -2.5666060527       -3.8224442462
