  97
 
 C          2.1374007126        0.8618860273       -3.1461553043
 C          2.4097541782        2.1398640443       -2.3621573074
 C          1.1371980296        2.9513923937       -2.1275177270
 C          1.3990784434        4.1898052501       -1.2726517482
 C          0.1073638820        4.9193786301       -0.9085733765
 C          0.3052611140        6.0996741377        0.0467285928
 C          0.9346535976        5.7709484326        1.4034128211
 C          0.0992970633        4.8673530822        2.3156185222
 N          0.0532030233        3.4896543237        1.8806546236
 C         -1.1309441389        2.8483241629        1.5229844885
 O         -2.2313750559        3.3895826117        1.5997098483
 C         -0.7369216171        1.5209696129        1.0919290883
 C         -1.3685813591        0.3714081749        0.5746266409
 C         -2.7193816858        0.0581664906        0.3148495138
 C         -3.0690344913       -1.1849837492       -0.2698000030
 C         -4.3732294243       -1.5170846169       -0.5152749803
 C         -5.4062666003       -0.6198195830       -0.2037254152
 N         -6.7310773445       -0.9565627970       -0.4557837210
 C         -7.6717421371       -0.1480444421       -1.0683295178
 C         -7.5264763243        1.1200520045       -1.6160294918
 C         -8.6338156167        1.6961696740       -2.2124856914
 C         -9.8538131436        1.0285038089       -2.2779820059
 C         -9.9959096759       -0.2485580667       -1.7627254949
 C         -8.9001367140       -0.8443948609       -1.1580610978
 C         -8.6835336803       -2.1353022094       -0.5570110263
 C         -9.5045902240       -3.2284207473       -0.3278850397
 C         -8.9738475585       -4.3300724461        0.3212356980
 C         -7.6513033276       -4.3371390513        0.7564395636
 C         -6.8145163061       -3.2570062718        0.5400061297
 C         -7.3317102734       -2.1624576025       -0.1409645597
 C         -5.0774386075        0.6200342519        0.3652886505
 C         -3.7741185391        0.9500881978        0.6260445079
 S         -0.1228936116       -0.8283235424        0.2304224354
 C          1.2045283984        0.1973980370        0.7705696623
 C          2.5317318226       -0.2772878645        0.6572629596
 C          2.7898841666       -1.5621262870        0.1225175014
 C          4.0672875501       -2.0328333981       -0.0197742573
 C          5.1616099033       -1.2375550346        0.3502183945
 N          6.4603161417       -1.7066595238        0.1903811374
 C          7.5117123859       -1.0029028780       -0.3693328957
 C          7.5218903877        0.2595603791       -0.9480457403
 C          8.7155857685        0.7171684560       -1.4767724104
 C          9.8697798019       -0.0608655859       -1.4453869293
 C          9.8572271379       -1.3330596749       -0.8997199099
 C          8.6722342173       -1.8118138645       -0.3629208484
 C          8.2949078518       -3.0639079321        0.2410025554
 C          8.9913132949       -4.2248381832        0.5393206274
 C          8.3157392316       -5.2597547090        1.1630942550
 C          6.9719634394       -5.1348890329        1.5054290234
 C          6.2578590416       -3.9851318619        1.2191748307
 C          6.9214004011       -2.9568691145        0.5624101319
 C          4.9235996964        0.0374042414        0.8835773947
 C          3.6451272876        0.5030208064        1.0457564259
 C          0.6659274337        1.4181680946        1.2111303945
 C          1.1645253164        2.6714620958        1.7615140231
 O          2.2948996469        3.0123117994        2.1003608036
 H          3.0587441715        0.3048089851       -3.3006012008
 H          1.7062758916        1.0949777090       -4.1175300879
 H          1.4392392364        0.2273701852       -2.6043223357
 H          2.8491536294        1.8840325322       -1.3941363242
 H          3.1337121165        2.7546467586       -2.9023396290
 H          0.4004061993        2.3207662293       -1.6213977676
 H          0.7080342255        3.2499567273       -3.0871312835
 H          2.0641777429        4.8728040190       -1.8068881173
 H          1.9153887315        3.8741577004       -0.3649710656
 H         -0.5995448533        4.2112330291       -0.4729988932
 H         -0.3524209436        5.2993001033       -1.8255218929
 H          0.9431831189        6.8400820645       -0.4433558673
 H         -0.6695899274        6.5635615934        0.2201075159
 H          1.9159857493        5.3148901866        1.2697443165
 H          1.0829393711        6.7109972606        1.9400563052
 H         -0.9396663882        5.2068524487        2.3562783297
 H          0.5270835077        4.8934450425        3.3249475621
 H         -2.2812689456       -1.8724908011       -0.5391738727
 H         -4.6126896222       -2.4563503527       -0.9902874533
 H         -6.5802993797        1.6380017562       -1.5923221221
 H         -8.5467813734        2.6837490054       -2.6403866135
 H        -10.6959751067        1.5120615489       -2.7499810905
 H        -10.9362133606       -0.7732753403       -1.8344804022
 H        -10.5367383252       -3.2151946757       -0.6427217002
 H         -9.5958659688       -5.1929479083        0.5066240397
 H         -7.2707761019       -5.2017553644        1.2794586061
 H         -5.7994319313       -3.2627526993        0.9052759097
 H         -5.8673120874        1.3025314902        0.6405687649
 H         -3.5437233616        1.8981697824        1.0837907306
 H          1.9566379549       -2.1710708774       -0.1943636045
 H          4.2411508166       -3.0029341433       -0.4598256784
 H          6.6282646115        0.8621628397       -0.9985314749
 H          8.7500145857        1.6977495580       -1.9276440225
 H         10.7835392426        0.3321605368       -1.8653485404
 H         10.7475141527       -1.9429619881       -0.8965520250
 H         10.0387154424       -4.3147524829        0.2953551956
 H          8.8392364679       -6.1736568346        1.4007907329
 H          6.4765783449       -5.9501350958        2.0112244544
 H          5.2240856006       -3.8895681511        1.5125011525
 H          5.7581226828        0.6409827611        1.2072181040
 H          3.4814382708        1.4734117476        1.4854880154
