  105
 
 C        -10.0128668261       -0.0798151724        4.1719045751
 C         -9.0451047298        0.1290208612        3.0489403400
 C         -7.6784499363        0.2405914493        3.2810417609
 C         -6.7923373015        0.4507077310        2.2446756126
 C         -7.2538245889        0.5528487931        0.9303340073
 N         -6.3436986363        0.7576343148       -0.1046256421
 C         -6.6929476794        1.4751999228       -1.2471249861
 C         -6.1025063798        1.1505857581       -2.4717162130
 C         -6.4248026405        1.8579941169       -3.6097158311
 C         -7.3416767168        2.9055565386       -3.5730485355
 C         -7.6977715487        3.6508301608       -4.8215732751
 C         -7.9244043409        3.2259417036       -2.3510326126
 C         -7.6069788388        2.5311314598       -1.2019654800
 C         -5.0496834345        0.2357056261        0.0055426388
 C         -4.8735919271       -1.1633793428        0.2416689355
 C         -5.9484934076       -2.0568322515        0.2790746885
 C         -5.7618790707       -3.4069314568        0.5513660614
 C         -4.4927351123       -3.8908877020        0.7995368004
 C         -3.4002403116       -3.0380767372        0.7075871425
 C         -3.5521866394       -1.6836257297        0.3839642641
 C         -2.4279093144       -0.8221422095        0.2142951112
 C         -1.0751887227       -1.3679814530        0.3124803166
 C         -0.1643139521       -0.8645926625        1.2503541040
 C          1.1120251948       -1.3752908548        1.3338166485
 C          1.5226427333       -2.3908815054        0.4744122733
 P          3.2130316533       -3.0195893550        0.7093505602
 O          3.3950063554       -3.7201380970        1.9971778279
 C          3.6045990993       -4.0634311973       -0.7280795840
 C          3.6165684825       -3.5640360539       -2.0251888735
 C          3.9254424074       -4.4036201799       -3.0795189150
 C          4.2250469012       -5.7371555605       -2.8430594210
 C          4.2184755155       -6.2342577263       -1.5498406235
 C          3.9092522169       -5.3966021196       -0.4921263383
 C          4.2786360740       -1.5503093735        0.5559633582
 C          5.4447489610       -1.5258019942        1.3097774543
 C          6.2956263775       -0.4402662706        1.2490947620
 C          5.9890138010        0.6354990814        0.4170773855
 N          6.8420693963        1.7424403597        0.3514230190
 C          8.2095219634        1.7017614647        0.1491976080
 C          9.0373370787        0.6127530327       -0.0841914477
 C         10.3822684036        0.8561575595       -0.2903894761
 C         10.8980791959        2.1504423986       -0.2757005125
 C         10.0752652171        3.2398089070       -0.0681343606
 C          8.7197981027        3.0201698523        0.1416569599
 C          7.6002192658        3.8938724145        0.3609753898
 C          7.4731700743        5.2725395432        0.4751003117
 C          6.2219205617        5.8040036934        0.7175938594
 C          5.1089306573        4.9781910347        0.8609159875
 C          5.2104834955        3.6039746285        0.7509217698
 C          6.4608089475        3.0656868202        0.4811048483
 C          4.8210209028        0.6074391722       -0.3445752270
 C          3.9697012823       -0.4766257711       -0.2705237123
 C          0.6277785915       -2.9078444609       -0.4533232252
 C         -0.6550939019       -2.4040366213       -0.5291728148
 C         -2.6089528314        0.5675934897       -0.0536885078
 C         -1.5229800563        1.4247883376       -0.2733151067
 C         -1.6986371072        2.7895939563       -0.4619571843
 C         -2.9689945149        3.3285434353       -0.4172261478
 C         -4.0696520947        2.4965350999       -0.2505675407
 C         -3.9265733764        1.1115024069       -0.1209865814
 C         -8.6256089519        0.4281078995        0.6887318960
 C         -9.4991560743        0.2243778956        1.7351617963
 H        -10.6040003658        0.8226305173        4.3308946977
 H         -9.4921230339       -0.3166042600        5.0961433392
 H        -10.7019349012       -0.8897301627        3.9378835220
 H         -7.3005732703        0.1708033011        4.2909072824
 H         -5.7346423180        0.5483562242        2.4408486288
 H         -5.3980527759        0.3329732708       -2.5159288198
 H         -5.9622408512        1.5893276561       -4.5485633520
 H         -8.1777243774        4.5977189621       -4.5871992550
 H         -8.3869400898        3.0591036646       -5.4255586267
 H         -6.8103872347        3.8417875946       -5.4219562788
 H         -8.6294613505        4.0428584888       -2.2944717426
 H         -8.0458013984        2.8181350862       -0.2574197484
 H         -6.9506794138       -1.7008018788        0.0994220662
 H         -6.6174768866       -4.0653666111        0.5866770267
 H         -4.3399219299       -4.9297050916        1.0533527449
 H         -2.4114679477       -3.4308614424        0.8896529753
 H         -0.4807496901       -0.0840173350        1.9274571443
 H          1.8129458590       -0.9988680630        2.0689204358
 H          3.3825944443       -2.5247408527       -2.2022438210
 H          3.9332627506       -4.0185714553       -4.0888117966
 H          4.4656929689       -6.3893842053       -3.6696746523
 H          4.4537213666       -7.2722647584       -1.3651321365
 H          3.8979614282       -5.7575668193        0.5271848853
 H          5.6583645062       -2.3621806589        1.9609470499
 H          7.1875178740       -0.4091845152        1.8567230698
 H          8.6457402639       -0.3929205900       -0.1151771440
 H         11.0473247513        0.0241390333       -0.4707392235
 H         11.9554153378        2.2994331006       -0.4385409463
 H         10.4724092501        4.2438492912       -0.0728040960
 H          8.3387155790        5.9111880105        0.3816216591
 H          6.1010296459        6.8735109811        0.8081284805
 H          4.1453694378        5.4208331996        1.0677009733
 H          4.3442577837        2.9733547969        0.8830520400
 H          4.5927673187        1.4355576256       -0.9988704453
 H          3.0566218411       -0.4868668841       -0.8483162528
 H          0.9414805026       -3.7010147886       -1.1181998675
 H         -1.3427227908       -2.7948368972       -1.2655544631
 H         -0.5240507624        1.0171577731       -0.2931005466
 H         -0.8391731441        3.4217888972       -0.6309027393
 H         -3.1191411869        4.3923500306       -0.5292766862
 H         -5.0524322771        2.9403993731       -0.2278053796
 H         -8.9950145683        0.4686128739       -0.3256429201
 H        -10.5556851780        0.1257905222        1.5309206099
