  73
 
 C         -4.3383275128       -5.2346843544       -0.9255222491
 C         -3.0735666173       -5.1680499448       -0.0652964686
 C         -2.0674208125       -6.1887065773       -0.6158781867
 C         -3.4547381292       -5.5397637539        1.3747660155
 C         -2.4344086799       -3.7886000744       -0.0694980006
 C         -1.2691995876       -3.5676015277        0.6622357828
 C         -0.6521755001       -2.3350849719        0.6932867925
 C         -1.1798782372       -1.2626453537       -0.0239591004
 N         -0.5603248783       -0.0084365004        0.0003201478
 C          0.8303511055        0.0891404165        0.0072808216
 C          1.4684290069        1.1179182192        0.7027350448
 C          2.8418739118        1.2256001608        0.6918082666
 C          3.6273027436        0.3052042666       -0.0004302576
 C          5.0895669554        0.4147326357       -0.0165370316
 C          5.8831639402       -0.7091544012        0.1843126772
 C          7.2683234170       -0.6438062490        0.1928187442
 N          8.0408140280       -1.7835444742        0.3710432895
 C          7.9047104117        0.5920690296       -0.0534295771
 N          9.2978656202        0.6639462050       -0.0246566334
 C          7.1260668794        1.7171390665       -0.2452991717
 C          5.7302920962        1.6450307303       -0.2220529973
 C          5.0071222481        2.8255860557       -0.4853001780
 N          4.4707113235        3.8119340374       -0.7279245920
 C          2.9881175014       -0.7333515966       -0.6760730417
 C          1.6141853901       -0.8379509416       -0.6823160551
 C         -1.3455434254        1.1523306214        0.0073908140
 C         -2.5373310096        1.2003281289        0.7274954938
 C         -3.3065890955        2.3448086132        0.7278862419
 C         -2.9257644394        3.4865525387        0.0257504065
 C         -3.8075289372        4.7242548439        0.0693441619
 C         -3.2433007075        5.8793634719       -0.7620563221
 C         -3.9318584973        5.1985149980        1.5242973257
 C         -5.1961859175        4.3716928111       -0.4824848927
 C         -1.7339592490        3.4269025985       -0.6869808179
 C         -0.9576080453        2.2836982521       -0.7037642574
 C         -2.3430944897       -1.4714977932       -0.7590865246
 C         -2.9556478784       -2.7102515422       -0.7746557943
 H         -4.7505605142       -6.2411296114       -0.8867461678
 H         -5.0972301324       -4.5470329332       -0.5596115353
 H         -4.1173611782       -5.0022434639       -1.9647144538
 H         -1.7754518676       -5.9191326058       -1.6288421134
 H         -1.1711602794       -6.2316580474       -0.0032952612
 H         -2.5130364538       -7.1811346576       -0.6374391509
 H         -4.1536746476       -4.8100268550        1.7783466059
 H         -2.5817509739       -5.5680483549        2.0208996572
 H         -3.9271745411       -6.5196851123        1.3971213514
 H         -0.8290074081       -4.3710762499        1.2337833008
 H          0.2443796606       -2.1930318505        1.2793347144
 H          0.8762525430        1.8320089245        1.2553013165
 H          3.3144367790        2.0203315130        1.2494409636
 H          5.4063347954       -1.6611592585        0.3717247911
 H          7.5289263788       -2.5793630114        0.7217126936
 H          8.9093028116       -1.6292010308        0.8613932012
 H          9.7586139671       -0.1216498540       -0.4617176894
 H          9.6597311823        1.5459485772       -0.3581194178
 H          7.6006621488        2.6715781795       -0.4269853615
 H          3.5776535748       -1.4463850564       -1.2344489026
 H          1.1345627088       -1.6340472570       -1.2329361687
 H         -2.8548614780        0.3342073421        1.2900901185
 H         -4.2216394362        2.3418754899        1.3011171129
 H         -2.2671678613        6.1860474027       -0.3939578174
 H         -3.9120293651        6.7353059235       -0.6942092460
 H         -3.1581808222        5.6019959340       -1.8101720772
 H         -4.3844742712        4.4361403161        2.1523633788
 H         -2.9488517314        5.4328653371        1.9274826778
 H         -4.5488046081        6.0933052673        1.5760881626
 H         -5.6746186797        3.5983626589        0.1120870487
 H         -5.8368220154        5.2511825707       -0.4761912339
 H         -5.1131607160        4.0123317472       -1.5061933216
 H         -1.3882525721        4.2759156788       -1.2532126267
 H         -0.0396579794        2.2672877378       -1.2729724522
 H         -2.7675086410       -0.6545235404       -1.3244071947
 H         -3.8528613093       -2.8197824940       -1.3616847792
