89
 xtb: 6.7.1 (edcfbbe)
C           11.70664239691005       -0.09524915813382        0.19770574627158
C           10.73748269803808        0.69190429165669       -0.40326805280701
C            9.41129164553080        0.30204029378536       -0.38959334613398
C            9.03817379773865       -0.88775597671024        0.23653423271632
C            7.66713413017301       -1.35399329611177        0.27021538287397
N            7.32359246768357       -2.62317828996361        0.25059615779033
N            6.00513947697698       -2.71011408288865        0.25385125676717
C            5.49354809997310       -1.48701888685656        0.29340273505372
C            4.09326332837525       -1.22506971791272        0.35310011881416
C            3.20369369072749       -2.26650170682267        0.00205135568048
C            1.85371098784954       -2.07950631090567        0.00881279760606
C            1.26912396543347       -0.83317072227554        0.37049498273853
C           -0.13733935579362       -0.62212432233956        0.34746584487541
C           -1.06578584439255       -1.70442705811964        0.31421177655847
C           -2.41135452699654       -1.51493247453158        0.27305750480053
C           -2.97508026977704       -0.20792701431055        0.24872673133725
C           -4.34302816496128        0.10496932515857        0.18941891510783
N           -4.78324785296712        1.36869070067921        0.31276816738000
C           -6.11150104677788        1.32387611207293        0.24222896690229
C           -7.02926303608393        2.40846861034837        0.35699716873366
C           -6.57513588459126        3.71075781784359        0.58726499585568
C           -7.47072675319573        4.74568375740176        0.72803663570873
C           -8.83539334080777        4.47997326295115        0.64838208665463
C           -9.29346533481760        3.20045734427714        0.41453848511443
C           -8.41138427813453        2.12247672483593        0.25234107260638
C           -8.86216080393221        0.76699332565964       -0.02010103864208
C          -10.21637388969390        0.46913918111585       -0.20525027156897
C          -10.65703016376474       -0.80721539116708       -0.48076687784723
C           -9.74319143412399       -1.85418981309399       -0.58861202072132
C           -8.40525472602762       -1.60880908336014       -0.41496705436738
C           -7.93002745619259       -0.31343609420637       -0.12720538589228
C           -6.56155608833408       -0.00651776856241        0.04160638634401
N           -5.42588485878074       -0.77160577135562        0.01355104569012
C           -5.35961467921805       -2.17189589865239       -0.17283023216783
C           -5.59713758205071       -3.02608805480565        0.90028202259805
C           -5.53194156045332       -4.39499284411611        0.71051524969906
C           -5.23266875544617       -4.91169855549585       -0.54038336696314
C           -4.99941961510037       -4.05900651438396       -1.60758602176968
C           -5.06284957118634       -2.68812295878543       -1.43014680274934
C           -2.05213049075638        0.88222381195384        0.30940561609826
C           -0.71105966133705        0.68503636401050        0.35785573578487
C            2.17648113767913        0.18765019810159        0.76491260802759
C            3.52873246037134        0.00024595881485        0.76411422545688
N            6.53386493111028       -0.57323513724229        0.30064985676884
C            6.48558863043106        0.83142682817517        0.36221742979404
C            7.03456436557496        1.47105450070264        1.44905411816303
C            7.00707138232236        2.86783227917309        1.53569799104941
C            6.42721000391879        3.60974885027808        0.54349154898230
C            5.86125735377472        2.98673081604720       -0.58957910372835
C            5.26051789516815        3.73347627355372       -1.62492074527550
C            4.73136322411187        3.11288576639199       -2.72249902079827
C            4.79063175155661        1.71693225944240       -2.84127884220246
C            5.36121278648696        0.96128346799040       -1.85373877214373
C            5.89761325095234        1.57089101901035       -0.70141885549130
C           10.02412018026499       -1.68820664984869        0.81904365977086
C           11.34611125005745       -1.29054921460380        0.80174989393078
H           12.73814572396818        0.22053193877171        0.15109272384285
H           11.00573843912425        1.62222344208890       -0.91164737113186
H            8.66253081852565        0.91919488751508       -0.89447229215072
H            3.62851719764286       -3.21359355849607       -0.28823377469432
H            1.21652893077298       -2.89304363721338       -0.29072188280451
H           -0.69493795392811       -2.71972443313512        0.38796318689213
H           -3.05716229793063       -2.38011415281919        0.30755301897836
H           -5.51207756820941        3.86497511557732        0.69393275529625
H           -7.12458207214272        5.75062067006840        0.91650606343379
H           -9.54481555512713        5.29123877585267        0.71980781879594
H          -10.35472237139532        3.05486527163300        0.29466129997041
H          -10.94348426336391        1.26106001211059       -0.19833397478185
H          -11.70014394434503       -0.98728953217688       -0.68470907261726
H          -10.07461975564976       -2.84887800959633       -0.85490038163822
H           -7.69410282030127       -2.41719075328107       -0.52027631792547
H           -5.83177328021190       -2.61253008521205        1.87982116089654
H           -5.71665015834275       -5.06028699914532        1.55027759250969
H           -5.17842882930704       -5.98024896672958       -0.67512639708484
H           -4.75915629287667       -4.45838053897801       -2.57161949117086
H           -4.87288162785366       -2.01079538104576       -2.23974183972072
H           -2.46640680726733        1.87449438021071        0.34883833035990
H           -0.06159686297049        1.54220003740548        0.41378865187130
H            1.79599961482068        1.12420991321964        1.15061014994551
H            4.17254793659440        0.79091553522886        1.12785534171449
H            7.49007208802450        0.88147572730124        2.23402414764226
H            7.44637707054106        3.34175873279063        2.40062743898445
H            6.39140455397052        4.68493689067423        0.61988654308201
H            5.21627516254998        4.81160248621143       -1.51857830104719
H            4.25344698136925        3.69915089769383       -3.49501521289675
H            4.36463631009908        1.24474450951856       -3.71079109918969
H            5.39430875517036       -0.11050732676122       -1.95438092748809
H            9.73353733303710       -2.62112979057051        1.24796371415503
H           12.10469338949697       -1.91593826082012        1.21708965903710
