  92
 
 O         -7.9915882924       -3.5014355885       -0.4457417815
 C         -7.2716672472       -2.5143611958       -0.2288152846
 C         -7.8305582448       -1.2198458661        0.1726187468
 C         -9.2168731999       -1.0942090585        0.3066046264
 C         -9.7883838810        0.1018334614        0.6810299338
 C         -8.9807891764        1.2077246380        0.9334774324
 C         -7.6131467047        1.1036190127        0.8076375711
 C         -7.0177243819       -0.1033839462        0.4269378268
 C         -5.5580376167       -0.1579070697        0.3019503714
 O         -4.8386442335        0.8211343639        0.5420761425
 C         -5.0215494020       -1.4366294760       -0.1124740069
 C         -5.8245562284       -2.5663936582       -0.3574843318
 C         -5.2186908446       -3.7772663406       -0.7392493047
 C         -3.8623339313       -3.9087485941       -0.8540987607
 C         -3.0233986502       -2.8066190352       -0.5999520851
 N         -1.7024016501       -2.8930440319       -0.5998397055
 C         -0.9233449737       -1.8497823767       -0.3823336463
 C          0.5061418956       -2.1087543568       -0.2529018259
 C          1.0836846659       -3.1255083200       -1.0194941250
 C          2.4253502387       -3.4126224030       -0.9185164486
 C          3.2410395102       -2.6890676221       -0.0415799106
 N          4.6001748566       -2.9600120149        0.0498128560
 C          5.0713863270       -4.2732027936       -0.0919628143
 C          4.3593002842       -5.3392120661        0.4586132981
 C          4.8309032360       -6.6309197835        0.3251189440
 C          6.0159354229       -6.8787869877       -0.3498446568
 C          6.7277869541       -5.8222256186       -0.8956309033
 C          6.2613019479       -4.5272531547       -0.7738112175
 C          5.5145092396       -1.9167926486        0.2574189152
 C          6.6255981768       -2.1051535778        1.0793183104
 C          7.5361380558       -1.0813777425        1.2591692732
 C          7.3538460495        0.1387064830        0.6271326197
 C          6.2496126895        0.3307298738       -0.1883639429
 C          5.3323420363       -0.6857268099       -0.3729030359
 C          2.6580196810       -1.6902668150        0.7481396576
 C          1.3145841134       -1.4109834714        0.6495314203
 C         -1.5184151546       -0.5526329885       -0.2662680500
 C         -0.7915964036        0.7076173907       -0.2590295554
 C          0.4053102262        0.9042988763       -0.9554109087
 C          1.0557156958        2.1148949770       -0.9005371944
 C          0.5258997697        3.1798243964       -0.1605600623
 N          1.2007406291        4.3903266870       -0.0842382310
 C          0.4874333722        5.5960810669       -0.0110132982
 C         -0.6638265518        5.7784600972       -0.7775178459
 C         -1.3619758521        6.9686221239       -0.7073124766
 C         -0.9220428221        7.9921191498        0.1174665388
 C          0.2235976818        7.8162029090        0.8773773385
 C          0.9258284326        6.6276385321        0.8190913847
 C          2.6021135786        4.4149911325       -0.0345065046
 C          3.2993514375        3.4455573910        0.6869490338
 C          4.6783334675        3.4910925491        0.7568233944
 C          5.3804417646        4.4952019043        0.1086291547
 C          4.6919847559        5.4573899895       -0.6135943209
 C          3.3126303952        5.4216596610       -0.6883885151
 C         -0.6994621349        2.9996525420        0.4922790209
 C         -1.3442155454        1.7863510306        0.4420752532
 N         -2.8314267072       -0.4883952096       -0.1744764778
 C         -3.6204805280       -1.5369372793       -0.2743216752
 H         -9.8198029342       -1.9683006541        0.1050182907
 H        -10.8608108275        0.1809193187        0.7793013222
 H         -9.4257474712        2.1467441616        1.2273592610
 H         -6.9653629771        1.9474601711        0.9971894587
 H         -5.8774132101       -4.6135079735       -0.9258835966
 H         -3.4064250941       -4.8485387505       -1.1224642565
 H          0.4603718849       -3.6748386627       -1.7079429923
 H          2.8578373972       -4.1911024348       -1.5287614733
 H          3.4423522825       -5.1461813043        0.9959116572
 H          4.2732961757       -7.4480268038        0.7586095294
 H          6.3824406383       -7.8892855481       -0.4491076306
 H          7.6489761892       -6.0082740717       -1.4277458744
 H          6.8114278653       -3.7062863877       -1.2094346355
 H          6.7660868871       -3.0545610318        1.5746930898
 H          8.3910295315       -1.2365460939        1.9006913225
 H          8.0702390042        0.9340855381        0.7672819623
 H          6.1041218222        1.2743842811       -0.6922460838
 H          4.4784979923       -0.5393711900       -1.0175031051
 H          3.2702026257       -1.1508089689        1.4549450358
 H          0.8760081326       -0.6636958358        1.2930431884
 H          0.8094595214        0.1104463672       -1.5642713380
 H          1.9743916167        2.2587194302       -1.4489643357
 H         -1.0016995153        4.9852847384       -1.4282800783
 H         -2.2510168304        7.0995069593       -1.3063828709
 H         -1.4696318039        8.9210312469        0.1677232107
 H          0.5687217192        8.6071872208        1.5266317528
 H          1.8117082882        6.4874746300        1.4207240207
 H          2.7525208054        2.6701597676        1.2025325194
 H          5.2050198035        2.7430294301        1.3299394151
 H          6.4577649767        4.5298479115        0.1680242378
 H          5.2321440354        6.2396707074       -1.1260408909
 H          2.7765146548        6.1691646924       -1.2541920182
 H         -1.1318260182        3.8154485967        1.0516905979
 H         -2.2887068608        1.6459208652        0.9453067829
