  75
 
 O          0.2451397012        2.8072277464       -2.4114664251
 P          0.1368321199        2.3274428565       -1.0187240890
 C          0.1574637190        3.6939143256        0.1918406152
 C         -0.4570588201        4.8767191202       -0.1983937836
 C         -0.4951806002        5.9577326727        0.6636561777
 C          0.0829839151        5.8576834097        1.9194674392
 C          0.7012581076        4.6801788878        2.3087538400
 C          0.7398901695        3.5965342672        1.4482181332
 C          1.4911795386        1.2090530991       -0.5514316647
 C          1.3690637663        0.2801977703        0.4870780597
 C          2.4143435156       -0.5533183616        0.8264169078
 C          3.5952830932       -0.4520413429        0.0993730718
 C          3.7335386952        0.4976025280       -0.9443170817
 C          2.6711108637        1.3262250155       -1.2680647061
 C          5.0699422873        0.3538004545       -1.4501524533
 C          5.7797930150        0.9800462070       -2.4671778316
 C          7.0757724113        0.5733518848       -2.7140151938
 C          7.6601338562       -0.4509654481       -1.9704428578
 C          6.9744409061       -1.0872709417       -0.9534400986
 C          5.6778328548       -0.6695766265       -0.6872363609
 N          4.7738432352       -1.1446955957        0.2439885929
 C          5.0164892179       -2.1755258273        1.1704211999
 C          4.1520470749       -3.2630574163        1.2467893368
 C          4.3954545431       -4.2737316832        2.1594808798
 C          5.5017990108       -4.2125410613        2.9910299693
 C          6.3646163606       -3.1315054828        2.9126050480
 C          6.1241430706       -2.1112328136        2.0098919976
 C         -1.4092520569        1.4262819335       -0.6970438006
 C         -1.9986223327        1.3769704012        0.5700301406
 C         -3.1674158482        0.6772221682        0.7874718327
 C         -3.7492500509        0.0228852379       -0.2925057135
 C         -3.1483862418        0.0510943951       -1.5764375306
 C         -1.9755075208        0.7621479614       -1.7731666047
 C         -3.9803170566       -0.7480237098       -2.4320824346
 C         -3.9235263900       -1.0832091212       -3.7792873299
 C         -4.9219694405       -1.8797338807       -4.3032819731
 C         -5.9737134968       -2.3291865127       -3.5061515343
 C         -6.0519344325       -2.0081097613       -2.1644625166
 C         -5.0398862887       -1.2251224684       -1.6266787029
 N         -4.8857886041       -0.7491521747       -0.3384582946
 C         -5.7554913419       -1.0006078044        0.7387584588
 C         -6.0927161641       -2.3087549703        1.0715581096
 C         -6.9552684567       -2.5507373159        2.1256408718
 C         -7.4766945715       -1.4964386609        2.8576411705
 C         -7.1362181716       -0.1940709214        2.5302184992
 C         -6.2820498269        0.0583104404        1.4717408484
 H         -0.8914003903        4.9334330258       -1.1875646681
 H         -0.9733645937        6.8766305982        0.3569430410
 H          0.0558129638        6.7007318358        2.5941872976
 H          1.1568208228        4.6055258852        3.2856084391
 H          1.2264828673        2.6784305624        1.7456472219
 H          0.4338825429        0.2133042337        1.0238720176
 H          2.3164715359       -1.2595628488        1.6369721641
 H          2.7381217804        2.0519895679       -2.0661276112
 H          5.3196848000        1.7632812949       -3.0509648126
 H          7.6458859190        1.0471061952       -3.4995551714
 H          8.6711872552       -0.7564172001       -2.1968753970
 H          7.4303019472       -1.8893684733       -0.3931491086
 H          3.3021553686       -3.3157412819        0.5824454500
 H          3.7221357510       -5.1163755062        2.2145480417
 H          5.6911450703       -5.0057304695        3.6985763762
 H          7.2262183122       -3.0779280123        3.5615766075
 H          6.7836697372       -1.2577917350        1.9568836967
 H         -1.5313786371        1.9069178644        1.3877907322
 H         -3.6116540658        0.6359852011        1.7704732856
 H         -1.4988240355        0.8168264291       -2.7418019975
 H         -3.1155025000       -0.7216393622       -4.3976458205
 H         -4.8962540415       -2.1543688127       -5.3475072680
 H         -6.7471255396       -2.9396776088       -3.9488132328
 H         -6.8779743909       -2.3483710039       -1.5586960602
 H         -5.6694478335       -3.1274696616        0.5087701569
 H         -7.2150328796       -3.5677106477        2.3800681017
 H         -8.1480723625       -1.6892856589        3.6808343866
 H         -7.5433944562        0.6308394060        3.0959848904
 H         -6.0286972824        1.0724263030        1.1998630221
