61
 xtb: 6.7.1 (edcfbbe)
C           -4.22565991066504        4.08363613325043        0.16171109265253
C           -3.18186532441527        3.01175983745591        0.08848255881988
C           -3.25194628106264        1.88929749898147        0.90836627637709
C           -2.30574136222170        0.88228682001292        0.85594816331458
C           -2.45276156672576       -0.27964064010001        1.79273390050360
C           -1.20070156508593        1.00528571807839       -0.01130462747014
B            0.01068294302594        0.00410325363050       -0.00325907113777
C            1.47125338125220        0.47479712693605       -0.00623990139489
C            2.46108182117399       -0.15686349096934       -0.82449881911291
C            2.07575262438460       -1.27462059138479       -1.74291833637622
C            3.77589477539772        0.25762371212909       -0.79538825363928
C            4.19459892583996        1.31645803497916        0.00516584389106
C            5.61399665660684        1.78717315068412        0.02332063048382
C            3.23714970940043        1.95499876164432        0.79992032672610
C            1.92070678380915        1.55906464232088        0.81321826531673
C            0.96080678340679        2.26385809661444        1.72207608573227
C           -0.39843676101813       -1.50880216900008        0.01178837217714
C           -1.38591140780420       -2.05419075612672       -0.83819928253119
C           -2.20234468890697       -1.19398576928336       -1.75595016319890
C           -1.56244535563916       -3.42287083702822       -0.89456419501770
C           -0.83134980497231       -4.29752896930240       -0.09259207683773
C           -1.06020652552168       -5.77532402473332       -0.17244140602442
C            0.10142387484737       -3.75527115276920        0.78022317774131
C            0.30274555589667       -2.38965886998920        0.87509928656828
C            1.28004600235463       -1.87269808549247        1.88526390488076
C           -1.15391523069576        2.11717942307888       -0.88735070407027
C           -0.06809047498080        2.25651729746608       -1.91005615020687
C           -2.11760042419229        3.10583978084151       -0.79818647330497
H           -5.19272329563094        3.66726310446661        0.42422978193005
H           -3.95527600915233        4.81315685417730        0.93518021724940
H           -4.30532546612379        4.61411474147164       -0.78132597101394
H           -4.07606646355465        1.79962255383852        1.60411005040093
H           -1.49582484482905       -0.57474093507977        2.19751479670571
H           -2.86493272464135       -1.15404593985784        1.26650798778945
H           -3.13355602988520       -0.03637801374371        2.60330809928044
H            2.87449357820873       -1.47810585155718       -2.45453955537412
H            1.88768454210404       -2.19236377248694       -1.17566305116833
H            1.16521616175997       -1.03874672142788       -2.27728721496427
H            4.50265552087124       -0.23512942870441       -1.42404398469452
H            5.95045282582874        2.00385844635236        1.02518296686553
H            6.27055783460942        1.04262289314658       -0.45096265532533
H            5.69948936892116        2.72748052214597       -0.57930038919327
H            3.54837537213405        2.78232587197965        1.42854511470755
H            0.35038498887500        1.53610682632775        2.27069301589268
H            1.49382332465053        2.88073736862757        2.44220910608583
H            0.27668465317061        2.89006892874145        1.16245451807673
H           -1.57996634947375       -0.40214191132766       -2.18827631912205
H           -3.01668223443435       -0.71634224236362       -1.23246965065197
H           -2.61271822034068       -1.78859266840660       -2.57250562986943
H           -2.28691390682407       -3.83095428835382       -1.58835510033691
H           -2.12750350778722       -5.99860745628274       -0.24442506082406
H           -0.57815933843491       -6.18283911248818       -1.06045302230456
H           -0.65657416975992       -6.28097183711843        0.70003861077862
H            0.65544611683203       -4.41541288030552        1.43404475539377
H            2.19037350480814       -1.53626759837336        1.40549195067378
H            0.86282028567455       -1.02093003236815        2.42755375302152
H            1.53368434148699       -2.65117495057547        2.60719844310410
H            0.88382141163612        2.51133938453023       -1.42298302995010
H           -0.30275396520807        3.04453763662321       -2.61735393949629
H            0.09003922202542        1.32582591060839       -2.44146196596077
H           -2.04786143913763        3.96522655473810       -1.45027355301372
