  121
 
 C         -7.7841073557       -4.6447451895       -2.5061995994
 C         -6.5152462147       -4.1552100873       -1.8078008794
 C         -5.5688167678       -3.5808742717       -2.8824788033
 C         -6.7996858996       -3.0797496095       -0.7727527262
 C         -7.9999395656       -2.3945188702       -0.6604442377
 C         -8.1817394682       -1.4315361916        0.3187605489
 C         -7.1738842962       -1.1636934537        1.2288170311
 C         -5.9747082512       -1.8464118829        1.1443210453
 C         -5.7732546947       -2.7732916911        0.1272077195
 N         -4.5727684039       -3.5076777289        0.0362604050
 C         -3.3252029666       -2.9198432290       -0.0294842372
 C         -2.1629457481       -3.6927406136       -0.2385395439
 C         -0.9335754642       -3.0972432749       -0.2682086536
 C         -0.7799189014       -1.7097884417       -0.1088898123
 C         -1.9389002633       -0.9074714532        0.0035986922
 C         -3.1841907215       -1.5369498311        0.0253713249
 C         -1.7958533148        0.5258300808        0.1184208300
 C         -2.8918380402        1.3943351215        0.1801274611
 C         -2.7279108097        2.7541579345        0.3404281168
 N         -3.8734064086        3.5942554570        0.4143533683
 C         -4.1748229927        4.4153454420       -0.6583668317
 C         -3.3652626222        4.3879432806       -1.8012352062
 C         -3.6263317451        5.2105710165       -2.8753195438
 C         -4.7100121820        6.0723799864       -2.8362989615
 C         -5.5299238978        6.0796000446       -1.7228996251
 C         -5.2921848500        5.2610672338       -0.6267113443
 C         -6.2492189531        5.2899602087        0.5478522607
 C         -7.6487024892        4.8814914795        0.0481293283
 C         -6.2864312448        6.7175675898        1.1263564848
 C         -5.8251637084        4.3353675928        1.6456732257
 C         -6.5932997729        4.2357671220        2.7983298237
 C         -6.2430770063        3.4027092685        3.8448027650
 C         -5.0801882665        2.6553781222        3.7563377357
 C         -4.2988849472        2.7335236433        2.6241144202
 C         -4.6665970787        3.5522378589        1.5483719166
 C         -1.4423597500        3.3053691476        0.4374224162
 C         -0.3525453812        2.4815848705        0.3505246470
 C         -0.4991954874        1.0923023547        0.1884525355
 C          0.6652664018        0.2706814973        0.0935855367
 N          1.8817564040        0.8202399136        0.1548305156
 C          2.9707206168        0.0578157434        0.0460959170
 C          4.2543559875        0.6056183193        0.1032510500
 C          5.3827305736       -0.1969626924       -0.0094345068
 N          6.6798900984        0.3799171168        0.0498559690
 C          7.2780604290        0.8043381297       -1.1230417004
 C          6.5686058702        0.7267099370       -2.3269738766
 C          7.1400345315        1.1350854789       -3.5125204764
 C          8.4327313440        1.6317748369       -3.5175900433
 C          9.1350354889        1.7109595249       -2.3288184037
 C          8.5858213771        1.3064421534       -1.1197338327
 C          9.4075534478        1.4086426891        0.1496389365
 C         10.6673137618        0.5359207041       -0.0089361587
 C          9.8041605486        2.8820642753        0.3654706376
 C          8.6364399308        0.9320653209        1.3641429983
 C          9.2345843904        0.9672259725        2.6163638477
 C          8.5753906874        0.5466525896        3.7570925038
 C          7.2762001817        0.0773846265        3.6586628363
 C          6.6572963463        0.0303245967        2.4284565484
 C          7.3248818580        0.4488392775        1.2717478793
 C          5.2255385725       -1.5693224882       -0.1801625166
 Br         6.7801872574       -2.6682250453       -0.3351596203
 C          3.9728261064       -2.1555710076       -0.2407369812
 C          2.8271290492       -1.3658566068       -0.1318884966
 N          1.6059721620       -1.9048681225       -0.1852865096
 C          0.5246220435       -1.1328225697       -0.0758376368
 C         -4.8027491691       -4.8855666989       -0.1513783419
 C         -4.1459579385       -5.8367090209        0.6209119417
 C         -4.4259699324       -7.1793032454        0.4467610190
 C         -5.3803954820       -7.5685918464       -0.4764739648
 C         -6.0706349288       -6.6167659102       -1.2091506392
 C         -5.7981705357       -5.2659586428       -1.0586216978
 H         -8.4881261010       -5.0620821515       -1.7897250284
 H         -8.2598138634       -3.8232997130       -3.0357863526
 H         -7.5357661996       -5.4033301564       -3.2440311383
 H         -5.3265822214       -4.3523757464       -3.6104518971
 H         -4.6405164650       -3.2163894646       -2.4509876986
 H         -6.0540083305       -2.7542886506       -3.3975039914
 H         -8.8102541099       -2.6020878824       -1.3399195906
 H         -9.1205068651       -0.9015204222        0.3796969207
 H         -7.3218924675       -0.4346805745        2.0118621615
 H         -5.1975987203       -1.6771268297        1.8750605271
 H         -2.2397210806       -4.7559595912       -0.3976913349
 H         -0.0414056398       -3.6871586004       -0.4143912393
 H         -4.0729238121       -0.9336154142        0.0777115381
 H         -3.8987073832        1.0148760584        0.1059323741
 H         -2.5268862386        3.7106423064       -1.8439131598
 H         -2.9847478284        5.1748499614       -3.7432361745
 H         -4.9212122438        6.7256995400       -3.6691577357
 H         -6.3804696110        6.7435882548       -1.7147584618
 H         -7.9873073851        5.5479654745       -0.7397939526
 H         -8.3726920947        4.9147048955        0.8570900647
 H         -7.6198363724        3.8676952173       -0.3475584278
 H         -5.2967714460        7.0010734659        1.4804117538
 H         -6.9797270937        6.7788500463        1.9601399648
 H         -6.5987937840        7.4327436276        0.3710325766
 H         -7.4921843612        4.8257558787        2.8888065414
 H         -6.8654074768        3.3464273213        4.7250473936
 H         -4.7774183075        2.0133315146        4.5702045814
 H         -3.3874678705        2.1592230899        2.5691195056
 H         -1.3272596795        4.3701649893        0.5735605675
 H          0.6509864881        2.8740423083        0.4109382895
 H          4.3645494868        1.6706413117        0.2353842480
 H          5.5600368370        0.3408194592       -2.3266600023
 H          6.5748126572        1.0639295955       -4.4299197528
 H          8.8911588361        1.9526400391       -4.4405760179
 H         10.1420995107        2.0976717890       -2.3504182468
 H         11.2577334334        0.8623070508       -0.8601607618
 H         10.3817587340       -0.5027038451       -0.1657775378
 H         11.2886097215        0.5907059444        0.8802152498
 H         10.4169047460        2.9899395508        1.2555859335
 H         10.3669571407        3.2586492997       -0.4835630138
 H          8.9111420840        3.4930696090        0.4855294101
 H         10.2460554770        1.3307624339        2.7108768987
 H          9.0715648151        0.5850678944        4.7148405073
 H          6.7426926921       -0.2524937494        4.5377516859
 H          5.6431324502       -0.3335046344        2.3556157611
 H          3.8626890362       -3.2202489598       -0.3722734254
 H         -3.4337076741       -5.5200438052        1.3682936799
 H         -3.9088532703       -7.9168357128        1.0424094509
 H         -5.6021071932       -8.6160539282       -0.6167319551
 H         -6.8265773853       -6.9456107164       -1.9032644634
