92

C     -4.343700   -7.769511   -0.044979
C     -3.331726   -8.694022   -0.235812
N     -2.034457   -8.360093   -0.390492
C     -1.740791   -7.036638   -0.352348
C     -2.673477   -6.014845   -0.163467
C     -2.279826   -4.599334   -0.128317
C     -2.928378   -3.645744   -0.924644
C     -2.555146   -2.294898   -0.895832
C     -1.516743   -1.842325   -0.064655
Si    -0.997550   -0.049263   -0.005986
C     -1.683410    0.771299    1.525419
C     -1.746941    2.175398    1.621424
C     -2.257942    2.807566    2.762186
C     -2.728819    2.065898    3.853274
C     -3.267549    2.729303    5.048747
C     -2.562569    3.738722    5.717022
C     -3.103056    4.344727    6.850288
C     -4.345493    3.923547    7.290993
N     -5.065368    2.958230    6.684200
C     -4.511608    2.390071    5.584300
C     -2.669064    0.668672    3.762438
C     -2.157446    0.032809    2.622716
C     -1.654913    0.860562   -1.499044
C     -0.846376    1.166064   -2.606734
C     -1.360681    1.849097   -3.717578
C     -2.701149    2.254729   -3.768759
C     -3.236213    2.969330   -4.936351
C     -2.602736    4.100424   -5.467381
C     -3.139971    4.755244   -6.574776
C     -4.307037    4.259147   -7.128872
N     -4.955305    3.174742   -6.657675
C     -4.405390    2.560374   -5.580921
C     -3.511561    1.955235   -2.665945
C     -3.000786    1.273203   -1.554046
C      0.870599    0.012116    0.013699
C      1.624273   -0.833894   -0.827119
C      3.023157   -0.806886   -0.827695
C      3.706149    0.072529    0.014618
N      5.132835    0.104902    0.016564
C      5.914313    1.263458    0.027032
C      5.567420    2.630370   -0.030232
C      6.586092    3.587849   -0.022958
C      7.920063    3.206539    0.019364
C      8.264677    1.853166    0.038074
C      7.253661    0.866318    0.028335
C      7.286333   -0.558486    0.007265
C      8.341510   -1.497989   -0.001533
C      8.059194   -2.865723    0.016407
C      6.744055   -3.307720    0.057237
C      5.682621   -2.397912    0.063781
C      5.966561   -1.016548    0.007044
C      2.981709    0.919212    0.856965
C      1.581873    0.885755    0.856701
C     -0.867209   -2.804954    0.732944
C     -1.242161   -4.154211    0.700982
C     -4.006451   -6.417235   -0.009177
H     -5.371553   -8.091966    0.077139
H     -3.544086   -9.758711   -0.269773
H     -0.686232   -6.812085   -0.494232
H     -3.730590   -3.948422   -1.595897
H     -3.096609   -1.611714   -1.548533
H     -1.401153    2.807969    0.802762
H     -2.297746    3.895379    2.781330
H     -1.581318    4.049861    5.366448
H     -2.564182    5.123714    7.377672
H     -4.807650    4.363921    8.169792
H     -5.130745    1.625849    5.120209
H     -3.012121    0.050140    4.590607
H     -2.143437   -1.056122    2.621107
H      0.204559    0.882429   -2.636445
H     -0.695856    2.050827   -4.556057
H     -1.693024    4.486318   -5.013312
H     -2.659813    5.633477   -6.991303
H     -4.764852    4.735122   -7.991226
H     -4.953195    1.683852   -5.242902
H     -4.555619    2.264276   -2.651253
H     -3.681304    1.073251   -0.725164
H      1.129753   -1.529348   -1.507030
H      3.555837   -1.450962   -1.523748
H      4.533205    2.953174   -0.097942
H      6.328393    4.643840   -0.060316
H      8.701787    3.961792    0.022439
H      9.311260    1.561998    0.049952
H      9.373730   -1.159427   -0.012225
H      8.874494   -3.584619    0.013898
H      6.534822   -4.374470    0.093928
H      4.664314   -2.768157    0.130495
H      3.484823    1.582587    1.557098
H      1.064578    1.553225    1.544456
H     -0.052925   -2.520373    1.400835
H     -0.716454   -4.855153    1.347537
H     -4.789188   -5.679852    0.152960
