  92
 
 C          5.4764819503        0.8905345162       -1.4815698018
 C          5.1088381194        1.7873009954       -0.2985112441
 C          4.9775072124        0.9975202054        1.0021526646
 C          3.8609171494        2.5983855676       -0.5647456228
 C          4.0078479580        3.9817747359       -0.6158784650
 C          2.9415544427        4.8291621926       -0.8449458705
 C          1.6798123229        4.2926661883       -1.0230482928
 C          1.5127311770        2.9233917682       -0.9745370091
 C          2.5825032290        2.0556817280       -0.7482931887
 P          2.2714957167        0.2260629347       -0.8076554509
 C          1.6083830674       -0.0996171464        0.8814335573
 C          1.1556826901        0.9670451217        1.6566943432
 C          0.7294153320        0.7861048350        2.9568768232
 C          0.7724372345       -0.4777402696        3.5147975659
 C          1.2725123721       -1.5297257878        2.7717962045
 C          1.7090489211       -1.3751338400        1.4598589502
 C          2.3099771917       -2.5985132866        0.7982555352
 C          1.6416128113       -2.9708571821       -0.5206395307
 C          3.8231701074       -2.4557931909        0.6146184402
 C          0.8362545756        0.3231860173       -1.9708468955
 C          1.3166719623        0.6717820721       -3.2375858723
 C          0.4768116301        0.8508666994       -4.3148515156
 C         -0.8867573821        0.6712206449       -4.1432603664
 C         -1.3745464118        0.2937412868       -2.9087063043
 C         -0.5342502286        0.0949334486       -1.8109718823
 P         -1.2621684254       -0.4333472946       -0.1991265691
 C         -1.7265490776       -2.1731135879       -0.5895166946
 C         -1.4953111991       -2.7528257774       -1.8347364936
 C         -1.8564787086       -4.0628573599       -2.0867458292
 C         -2.4541546830       -4.8140845706       -1.0904646963
 C         -2.6661578359       -4.2532559707        0.1555650620
 C         -2.3017389429       -2.9416181335        0.4317697801
 C         -2.5327942857       -2.3734504430        1.8098313381
 C         -1.8710295819       -3.2422283126        2.8798014177
 C         -4.0260406113       -2.2089937696        2.0957102127
 C         -2.9508143848        0.3082963755       -0.3723787228
 C         -4.0076430485       -0.4018859873       -0.9417090298
 C         -5.2744046030        0.1439263266       -1.0224899379
 C         -5.5091686233        1.4121583941       -0.5212113675
 C         -4.4703302693        2.1213745934        0.0497083864
 C         -3.1878558310        1.5911862605        0.1299140840
 C         -2.0857166985        2.3992441799        0.7632622107
 C         -2.3521997152        2.5859799866        2.2568127809
 C         -1.9079114275        3.7474555223        0.0658283275
 H          5.5914717718        1.4897552128       -2.3828514738
 H          4.7093473061        0.1416154194       -1.6616471402
 H          6.4162619907        0.3797532466       -1.2829075820
 H          5.9344480570        2.4979397552       -0.1681792943
 H          4.1334471252        0.3150891521        0.9571816372
 H          5.8816909505        0.4215544970        1.1874973676
 H          4.8191753286        1.6760265951        1.8385744627
 H          4.9930830003        4.4057038429       -0.4763301011
 H          3.0953805482        5.8976017930       -0.8847561833
 H          0.8298935654        4.9345113415       -1.2042856370
 H          0.5223692315        2.5170448580       -1.1200363612
 H          1.1465783037        1.9618385293        1.2367395852
 H          0.3771793794        1.6284672622        3.5334426182
 H          0.4417082411       -0.6414552677        4.5300899392
 H          1.3468175865       -2.5047745579        3.2342103024
 H          2.1490307762       -3.4370390150        1.4875632200
 H          1.7293199940       -2.1671420902       -1.2497169302
 H          0.5879187476       -3.1813881771       -0.3617331465
 H          2.1118724159       -3.8598079897       -0.9366802966
 H          4.2467450769       -3.4104464481        0.3092787053
 H          4.0521729777       -1.7227725740       -0.1540440284
 H          4.2950620195       -2.1512318896        1.5465138718
 H          2.3839474511        0.8188378509       -3.3597816311
 H          0.8771780746        1.1297607165       -5.2785680136
 H         -1.5671021326        0.8162932327       -4.9699036906
 H         -2.4384847935        0.1465891138       -2.7883672284
 H         -1.0240825659       -2.1782020127       -2.6186339080
 H         -1.6730677859       -4.4927513573       -3.0607163751
 H         -2.7494405459       -5.8356173558       -1.2810692427
 H         -3.1263312872       -4.8507352964        0.9287953019
 H         -2.0642574315       -1.3800197702        1.8485280043
 H         -1.9068993719       -2.7387749853        3.8432524786
 H         -2.3772792644       -4.1996115199        2.9769986861
 H         -0.8308235236       -3.4239419138        2.6225110761
 H         -4.1724485945       -1.7876666516        3.0880475633
 H         -4.4842860593       -1.5430548189        1.3678711994
 H         -4.5337174622       -3.1701701603        2.0512485673
 H         -3.8425788265       -1.3969438637       -1.3301660684
 H         -6.0758553626       -0.4235406046       -1.4734220469
 H         -6.4973099467        1.8454476538       -0.5746964944
 H         -4.6619271699        3.1094417890        0.4419943189
 H         -1.1520026298        1.8324272196        0.6570226934
 H         -3.2924890090        3.1076227767        2.4209270261
 H         -2.4035673817        1.6182351956        2.7513184505
 H         -1.5528839242        3.1676817298        2.7104594049
 H         -2.7771685843        4.3835044557        0.2158627177
 H         -1.0371043857        4.2617221674        0.4669953869
 H         -1.7686380794        3.6066812268       -1.0046937417
