  72
 
 C         -6.2610390675       -0.3210687167        0.8055186129
 C         -5.3016573457        0.5709995094       -0.0060536100
 C         -6.0833545593        1.6786529171       -0.7367831109
 C         -4.3212504756        1.2043267914        0.9577128802
 C         -4.7835647086        2.0980196313        1.9142759405
 C         -3.9470220266        2.6571660863        2.8622566397
 C         -2.6089879974        2.2984153099        2.8844690253
 C         -2.1234549709        1.4103224390        1.9518561738
 C         -2.9591035378        0.8672003407        0.9664724280
 N         -2.4418167278       -0.0078173349        0.0295256787
 C         -1.1519998139       -0.5632115952        0.1961005142
 C          0.0059424801        0.1735281234        0.0433000684
 C          1.2643151958       -0.3765180062        0.2424213171
 N          2.4527326986        0.3312569940        0.1460605508
 C          2.6502255168        1.5683281156       -0.4825717787
 C          1.8509280144        2.6779709137       -0.2132691474
 C          2.1068748843        3.8858455869       -0.8315587307
 C          3.1772728497        4.0049482813       -1.7003474094
 C          4.0201180900        2.9243914203       -1.9101086740
 C          3.7850180891        1.7032377106       -1.3034527093
 C          4.6836722642        0.4913354242       -1.4603078143
 C          6.0440754680        0.8373077244       -2.0649504407
 C          3.9946157239       -0.5318456801       -2.3869194780
 C          4.8077188370       -0.1158786249       -0.0762273439
 C          5.9706293019       -0.6228812261        0.4715324303
 C          5.9694678001       -1.2014717358        1.7334490677
 C          4.8026567063       -1.2668623998        2.4754118998
 C          3.6287477773       -0.7672384442        1.9525026796
 C          3.6269688882       -0.2085644131        0.6722867976
 C          1.3433472319       -1.8348166637        0.4396134802
 C          2.5141347881       -2.5713431078        0.2648227098
 N          3.4088122249       -3.2771839272        0.0632022957
 C          0.1740458958       -2.5595940379        0.6449911457
 C         -1.0760922914       -1.9714342348        0.5689137044
 C         -2.2478288870       -2.6711671554        0.8418128593
 N         -3.2419073494       -3.2143041783        1.0702831394
 C         -3.2264188591       -0.5344811120       -0.9779023435
 C         -2.6181146277       -1.3086369496       -1.9774028466
 C         -3.3688812053       -1.8933345464       -2.9710236487
 C         -4.7417482651       -1.7069022430       -2.9951074763
 C         -5.3394087520       -0.9068272337       -2.0377856350
 C         -4.6068823071       -0.2979514926       -1.0298457861
 H         -7.0172626033       -0.7563109971        0.1582077344
 H         -5.7030286089       -1.1300316069        1.2730213678
 H         -6.7582051224        0.2530692699        1.5828429842
 H         -5.3943309201        2.3224490391       -1.2804439819
 H         -6.7871049861        1.2535408002       -1.4458191317
 H         -6.6438568734        2.2884773513       -0.0347177569
 H         -5.8298657957        2.3607698636        1.9331000158
 H         -4.3394430498        3.3528553834        3.5877793294
 H         -1.9458912886        2.7058933303        3.6325822577
 H         -1.0874430960        1.1145254100        1.9903254668
 H         -0.1006167352        1.2026425203       -0.2563969535
 H          1.0643160884        2.6168378328        0.5215775657
 H          1.4784781059        4.7376384108       -0.6192085457
 H          3.3762091267        4.9443783792       -2.1928464596
 H          4.8718270166        3.0517177716       -2.5579083190
 H          5.9205245117        1.2519977606       -3.0622049290
 H          6.5767564583        1.5543471136       -1.4440415407
 H          6.6441289554       -0.0633915129       -2.1625427349
 H          2.9960701059       -0.7802962983       -2.0386210425
 H          3.9156958901       -0.1252004823       -3.3931079938
 H          4.5757817058       -1.4502993262       -2.4181695269
 H          6.8952188403       -0.5861248138       -0.0808413177
 H          6.8880586248       -1.5989084664        2.1367964288
 H          4.8077011241       -1.7038854552        3.4620657525
 H          2.7137665717       -0.7878232954        2.5263767725
 H          0.2486388236       -3.6215780854        0.8353014150
 H         -1.5467909339       -1.4373690869       -1.9705897040
 H         -2.8846121923       -2.4932854627       -3.7261537289
 H         -5.3426811912       -2.1727348414       -3.7607260335
 H         -6.4083445344       -0.7652722017       -2.0789826346
