  97
 
 C         -8.3931922856        2.7990073703       -2.2958846120
 C         -7.3787095747        2.0101440927       -1.4753292245
 C         -6.5702321118        2.9204408014       -0.5516168558
 C         -5.4906872630        2.1784143424        0.2371402373
 C         -6.0611765089        1.2917453024        1.3430363907
 C         -4.9564746250        0.5214478574        2.0743358643
 N         -4.2316348998       -0.3464501687        1.1668706095
 C         -2.8344113033       -0.3629468997        1.2010780441
 C         -2.1328644619       -0.1004506882        2.3167596164
 C         -0.6418602154       -0.0372766495        2.3777919302
 C          0.0671189416       -0.2423361578        1.0594741350
 C          1.4040419328       -0.1168799027        1.0108388939
 C          2.3021523011       -0.2888821304       -0.1758435840
 C          3.2406124974        0.8827560804       -0.3382665162
 C          2.9294815609        2.2060161807       -0.5556190488
 C          3.9623630830        3.1393057951       -0.6592279307
 C          3.6516881634        4.5563288997       -0.9242781132
 C          2.9167568837        4.8828592656       -2.0400763651
 C          2.6477140575        6.2175240672       -2.3692712833
 C          3.1155214729        7.2289232516       -1.5781752446
 C          3.8473547182        6.9418938493       -0.4067957593
 C          4.3160804213        7.9704979811        0.4384873905
 C          4.9975528874        7.6805193305        1.5866268666
 C          5.2295506871        6.3442586134        1.9466738504
 C          4.7965680105        5.3249386427        1.1447584597
 C          4.1134460917        5.5890504921       -0.0621788163
 C          5.2884695264        2.7168427504       -0.5581164014
 C          5.6054558978        1.3872685972       -0.3439141190
 C          4.5761417089        0.4659311887       -0.2271227225
 C          4.5942743142       -0.9680990815        0.0003649248
 C          5.6453837622       -1.8534704681        0.1806810842
 C          5.3606613210       -3.1923287008        0.3833217527
 C          4.0475398624       -3.6617522125        0.3993765031
 C          3.7857246311       -5.0935339700        0.6363458289
 C          4.2789636793       -5.6848800174        1.7760954115
 C          4.0248773234       -7.0312935752        2.0664482282
 C          3.2766366069       -7.7898951760        1.2107848893
 C          2.7721228291       -7.2347776202        0.0160809955
 C          2.0216895306       -8.0092678971       -0.8946523593
 C          1.5633040749       -7.4709687040       -2.0636950871
 C          1.8489674696       -6.1340771058       -2.3800213534
 C          2.5675220341       -5.3551923345       -1.5159598233
 C          3.0334890430       -5.8710531819       -0.2871710713
 C          2.9906530748       -2.7649730769        0.2257137044
 C          3.2698328916       -1.4322799676        0.0254244877
 C         -0.7509428510       -0.5760069805       -0.0730666637
 C         -2.0968207979       -0.6442022372       -0.0168148891
 S         -2.9771264339       -0.9902735664       -1.5061382885
 C         -4.4556258334       -1.6960693910       -0.8353577138
 C         -5.1531356526       -2.6118387906       -1.6058467803
 C         -6.3444040039       -3.1419313026       -1.1465912106
 C         -6.8202735119       -2.7596545971        0.0972272131
 C         -6.1206668465       -1.8522924269        0.8693717415
 C         -4.9260295762       -1.2856487937        0.4161111361
 H         -9.0942303444        3.3146699340       -1.6424007429
 H         -7.8915183990        3.5419178675       -2.9129631919
 H         -8.9566128463        2.1350949529       -2.9481879346
 H         -7.9066703436        1.2560063704       -0.8885724581
 H         -6.6965143575        1.4854105436       -2.1492112756
 H         -6.0897575147        3.6907587898       -1.1602970462
 H         -7.2458455618        3.4241600009        0.1441166075
 H         -4.8117130136        2.9086469911        0.6857178422
 H         -4.9060507012        1.5666089009       -0.4532616187
 H         -6.7779258082        0.5919733536        0.9153550657
 H         -6.5862338840        1.9102751631        2.0737482740
 H         -5.3764746606       -0.0353868523        2.9217948555
 H         -4.2402996527        1.2446455116        2.4678961027
 H         -2.6343747007        0.0812038655        3.2551530791
 H         -0.3471056914        0.9297301404        2.8030855296
 H         -0.2972003103       -0.7962217273        3.0923685100
 H          1.9327367071        0.1291860281        1.9236121972
 H          1.7170090416       -0.4375819077       -1.0867318595
 H          1.9005014375        2.5284228856       -0.6313009385
 H          2.5616315981        4.0949745783       -2.6895602466
 H          2.0775217879        6.4372863504       -3.2605933578
 H          2.9263183442        8.2621942580       -1.8327726664
 H          4.1171276590        8.9964208860        0.1612183788
 H          5.3521860796        8.4743588240        2.2283453708
 H          5.7503803764        6.1256482779        2.8680260490
 H          4.9653677539        4.2986569661        1.4357900382
 H          6.0790913749        3.4460378104       -0.6664987820
 H          6.6374807976        1.0765672540       -0.2724002168
 H          6.6688859708       -1.5086555909        0.1640228934
 H          6.1682084419       -3.8982417363        0.5171599617
 H          4.8550718289       -5.0924558251        2.4731364631
 H          4.4197207825       -7.4591317414        2.9768511974
 H          3.0659431338       -8.8267808730        1.4317675688
 H          1.8224044156       -9.0434215006       -0.6499663914
 H          0.9900610465       -8.0711010927       -2.7557384059
 H          1.5000878972       -5.7244746652       -3.3172494954
 H          2.7980241266       -4.3323719155       -1.7748833611
 H          1.9695365618       -3.1173357417        0.2649038972
 H         -0.2724743527       -0.7689197913       -1.0214167557
 H         -4.7586326091       -2.8888120273       -2.5722646862
 H         -6.8918915123       -3.8469864219       -1.7528349904
 H         -7.7434405419       -3.1746795227        0.4741566092
 H         -6.5037718920       -1.5834265509        1.8406905781
