  55
 
 O         -5.1457606810       -0.0146590471        0.0706800795
 C         -3.8816208528       -0.0106888416        0.0488098549
 C         -3.1175517412       -1.2358028878        0.0923346504
 C         -3.8213238665       -2.4560731390        0.1578769997
 C         -3.1459814697       -3.6500427473        0.2009190799
 C         -1.7562626892       -3.6715423993        0.1801075867
 C         -1.0573260155       -2.4768743800        0.1159776259
 C         -1.7187813490       -1.2619944080        0.0719311994
 C         -0.8710041117       -0.0005905984        0.0067314588
 C         -1.7288589034        1.2543899983       -0.0459177698
 C         -1.0770522543        2.4732150388       -0.1168204010
 C         -1.7853910471        3.6630626153       -0.1653439513
 C         -3.1748969843        3.6326801787       -0.1419177399
 C         -3.8407978430        2.4346730799       -0.0718698591
 C         -3.1274039290        1.2192510463       -0.0227714150
 C         -0.0388030445       -0.0552883948       -1.2487113241
 C         -0.6888465780       -0.1091744874       -2.4741444423
 C          0.0196489662       -0.1561384684       -3.6581361695
 C          1.4074811866       -0.1472311218       -3.6243652475
 C          2.0733674217       -0.0943155228       -2.4198080078
 C          1.3616158782       -0.0501129244       -1.2145133619
 N          2.0367635957        0.0022824513       -0.0096939635
 C          3.4619952473        0.0075112587       -0.0181189322
 C          4.1480861278        1.2147781016       -0.0108882224
 C          5.5317136402        1.2160248051       -0.0193949418
 C          6.2280899831        0.0188072190       -0.0357189341
 C          5.5413090104       -1.1840253961       -0.0430699446
 C          4.1576744217       -1.1941269930       -0.0339582059
 C          1.3752339403        0.0558722665        1.2026092830
 C          2.1006053186        0.1029672518        2.3996314861
 C          1.4484244081        0.1584568982        3.6115465470
 C          0.0610610834        0.1670125467        3.6610199913
 C         -0.6608200984        0.1162412702        2.4853186060
 C         -0.0246839137        0.0596061820        1.2527196163
 H         -4.8996601390       -2.4129083692        0.1728541961
 H         -3.7004501179       -4.5759730603        0.2514062288
 H         -1.2207513146       -4.6080558225        0.2139253130
 H          0.0244552278       -2.4868278734        0.1001803725
 H          0.0046291704        2.4899906277       -0.1345146770
 H         -1.2573038009        4.6027605448       -0.2206310362
 H         -3.7366703602        4.5548328714       -0.1789019424
 H         -4.9187609193        2.3846903511       -0.0524757929
 H         -1.7686084661       -0.1130099158       -2.4857851351
 H         -0.5019499469       -0.1977329761       -4.6014030798
 H          1.9732381218       -0.1810305124       -4.5431485519
 H          3.1525226044       -0.0855132926       -2.4031961129
 H          3.5939072508        2.1415176610        0.0021321504
 H          6.0660479742        2.1539246785       -0.0137523225
 H          7.3074116974        0.0232029069       -0.0427571444
 H          6.0832188608       -2.1175038933       -0.0556056394
 H          3.6110669483       -2.1254176260       -0.0398875792
 H          3.1795080517        0.0945187892        2.3707277200
 H          2.0245124936        0.1947029806        4.5237888686
 H         -0.4498883368        0.2111419457        4.6099824060
 H         -1.7403576043        0.1193597330        2.5094613450
