96
 xtb: 6.7.1 (edcfbbe)
C           -9.81904328931749       -4.78312532518013        0.16434448837183
C          -10.25389489028731       -3.46754712651416        0.10829427301049
C           -9.33576590420158       -2.43611586927408        0.05638441215052
C           -7.96914611562682       -2.71428150752818        0.06163418567142
C           -6.99530757759950       -1.62330953007963        0.01036340344800
N           -7.45659555083641       -0.37563819363996       -0.03597727782094
C           -6.53756564590113        0.58595374595528       -0.07848081330458
C           -6.99429853347677        1.97512783556643       -0.13014385000090
C           -8.35554243726181        2.27080261747024       -0.06865906141895
C           -8.78245907499844        3.58412787381627       -0.11479433701354
C           -7.85831702314748        4.61241910099168       -0.22346044251478
C           -6.50317386277254        4.32491400845629       -0.28597341750978
C           -6.07002007183907        3.01375807960190       -0.23944945086477
N           -5.22602449903957        0.36106943377732       -0.07678896045147
C           -4.85283707498615       -0.91517964740686       -0.02624228363458
C           -3.41990494000141       -1.20570091485810       -0.01678955659074
C           -2.97099132979508       -2.52828458955554       -0.02975735449154
C           -1.62092321366415       -2.82324265892632       -0.02449681770191
C           -0.71008154469110       -1.77583606792439       -0.00443259115941
C           -1.16120205136677       -0.44532275139260        0.01144644566369
C           -2.50229254699959       -0.15094735705293        0.00514965325529
C            0.00851265636435        0.51989614761076        0.03196529228918
C           -0.00763545645626        1.35132482487338        1.29475508046694
C            0.04884305594878        0.72895345832575        2.53583963868885
C            0.02214447335077        1.46567702006933        3.70445142588123
C           -0.06372350563062        2.84840171335072        3.64523966933814
C           -0.11999652093677        3.48399435973554        2.42179541587017
C           -0.09214419544601        2.73867958577746        1.24507345196454
O           -0.15121978626122        3.44892847036650        0.08107147894571
C           -0.08463792213939        2.77717299006828       -1.10847082752860
C           -0.10619124630313        3.56034247915291       -2.26048397257894
C           -0.04179352479815        2.96491609780653       -3.50357720505813
C            0.04652997080367        1.58496307756358       -3.60714706595572
C            0.06688032653116        0.81061293324117       -2.46301506619955
C            0.00140291549017        1.39225692874969       -1.20277262245794
C            1.18390839409118       -0.43649787882128        0.02076550583079
C            2.52324796523018       -0.13341200331776        0.02529596324982
C            3.44788042685634       -1.18227177501705        0.00959376787822
C            4.87954267554168       -0.88508181043635        0.00832299817756
N            5.73178394058702       -1.90634303430828       -0.03345875190726
C            7.02393223062201       -1.58708726915466       -0.04053715769648
C            8.00014000533486       -2.67584769126398       -0.08940767764038
C            7.57246508244642       -4.00297183768636       -0.11150070167112
C            8.49723418922823       -5.02840806237897       -0.15896603128600
C            9.85366246509890       -4.74122068353092       -0.18498559332941
C           10.28538553070353       -3.42357456048893       -0.16348384250359
C            9.36546085485235       -2.39379400916646       -0.11550090446345
N            7.48167588544317       -0.33770935540094       -0.00877227973196
C            6.56009441437907        0.62131902975403        0.03455514267294
C            7.01409939722684        2.01193151195226        0.06911249475421
C            6.08795554750277        3.05055447949671        0.16061644773431
C            6.51895455392067        4.36292395211033        0.18978337197054
C            7.87385958580691        4.65162554808274        0.12773691859171
C            8.79991219262715        3.62333013109923        0.03691615085128
C            8.37512691257033        2.30885696516045        0.00811054270775
N            5.24913088907546        0.39264890410496        0.04636345947466
C            3.00769104868515       -2.50782002206328       -0.00858873659113
C            1.65972581223321       -2.81188494732231       -0.01275115630385
C            0.74198158978612       -1.77046072095057        0.00115918237499
N           -5.70210679950301       -1.93890480599048        0.01478663293439
C           -7.53832546241631       -4.03934068996381        0.11813617620029
C           -8.46132630771099       -5.06648278485951        0.16918769194761
H          -10.53635364963845       -5.59166753521577        0.13032340428453
H          -11.30972481564769       -3.25093631124284        0.03083286159797
H           -9.65469041052797       -1.40900788739575       -0.02884415065895
H           -9.06128921419546        1.45605116530984        0.04075890433025
H           -9.84042273987925        3.80610498960293       -0.02464245006058
H           -8.19821267705231        5.63827629839304       -0.20390213690462
H           -5.78700827241827        5.12822471592926       -0.31844979763978
H           -5.02150967133089        2.77487337045124       -0.25298310214429
H           -3.70689834998092       -3.31585520199977       -0.03310982744691
H           -1.28396473597763       -3.84737194056843       -0.02354892280826
H           -2.86346718437336        0.86649011672944        0.02221710090807
H            0.11731954641978       -0.33991959941089        2.57871050309716
H            0.07341424448843        0.97846661205366        4.65829402759279
H           -0.08070045777967        3.44643422156086        4.54542752007088
H           -0.18418802853335        4.56620171178026        2.33554084407475
H           -0.17759799317094        4.62577192524511       -2.16179597658878
H           -0.06545765567037        3.56483330632480       -4.40008201376535
H            0.09288808109756        1.10086537814352       -4.57741443313090
H            0.13055093303703       -0.27193714869886       -2.53347529955074
H            2.87726185961589        0.88637456071674        0.03534035124266
H            6.51225985043322       -4.20820993939272       -0.07233638498407
H            8.15991164518146       -6.05651767344983       -0.14225111984368
H           10.57290078877691       -5.54763193093063       -0.18495681513907
H           11.34122772686430       -3.20332215752339       -0.15707697568713
H            9.68282986258665       -1.36491372186466       -0.08595337279535
H            5.03927273399232        2.80983964478273        0.17992363014393
H            5.80064708869138        5.16528331739363        0.21692185452182
H            8.21135391299981        5.67782958646666        0.10513855053548
H            9.85735802638515        3.84611637739643       -0.04196024360057
H            9.08237355756400        1.49414527319471       -0.07802231970941
H            3.74874211461058       -3.29072101840096       -0.01224862713446
H            1.32927991869503       -3.83828652671261       -0.01597653920346
H           -6.47762816261910       -4.24146485265893        0.11454233177819
H           -8.12182161750532       -6.09332566955842        0.17194823242621
