96
 xtb: 6.7.1 (edcfbbe)
C           -9.81456243796379       -4.80126510703185       -0.10749125401905
C          -10.24901782277737       -3.48453673184863       -0.11405251870726
C           -9.33184087815213       -2.45160050343786       -0.08087332409076
C           -7.96563008458418       -2.72906622403797       -0.04111975504471
C           -6.99282438140841       -1.63696502862638       -0.01116567611090
N           -7.46000511861869       -0.38219611540407        0.01235845842533
C           -6.53858097442785        0.58920750865297        0.02509034973332
C           -7.00265193730521        1.97608101471181        0.04190875428142
C           -8.36672346019799        2.26049323978165        0.09709305252183
C           -8.80207048767018        3.57176613081635        0.11006665731732
C           -7.88422485113040        4.61022833329268        0.06708441765545
C           -6.52610497088237        4.33406037022906        0.01264560199205
C           -6.08446508167016        3.02543847685997        0.00033496346245
N           -5.24297099915473        0.35973906459634        0.02256815007959
C           -4.82773572249523       -0.92150051686587        0.00546932410012
C           -3.42871604961906       -1.20507341299295        0.00412999079981
C           -2.96340656042327       -2.53612179794320       -0.00933807787666
C           -1.62367802943947       -2.82825147779691       -0.01196449677230
C           -0.69629395252213       -1.77947542746481       -0.00251073142516
C           -1.16361918046632       -0.44304298614223        0.01024989233998
C           -2.49298866289335       -0.14671707018955        0.01486042014416
C            0.01010162277171        0.52752005984928        0.01583737112172
C            0.00096439143419        1.36058995053532        1.27015699958428
C            0.06025203396204        0.74974771611303        2.51694894883559
C            0.03904485275824        1.49884241631690        3.67758906296239
C           -0.04458945034923        2.88419615052235        3.60870231748970
C           -0.10385130935938        3.51077082092951        2.38257638625812
C           -0.08075063659436        2.75241491189841        1.21131101515710
O           -0.14058784153635        3.44665142934612        0.04226932923628
C           -0.08786125835316        2.77319588531343       -1.13946409655928
C           -0.11785577104823        3.55212851010173       -2.29701866443518
C           -0.06562812456964        2.94733645757495       -3.53435425874342
C            0.01803354032171        1.56345447203790       -3.62815985724763
C            0.04631658484691        0.79395892752159       -2.48109165108592
C           -0.00619106376871        1.38268260643955       -1.22340764611730
C            1.18871181076936       -0.43410477514838        0.00389705422544
C            2.51630592184928       -0.12910332149116        0.00081268648463
C            3.45896919628952       -1.18135551805325       -0.00908436269528
C            4.85632618395331       -0.88920108433272       -0.01186836459898
N            5.74633163612837       -1.90066838838280       -0.00076770299556
C            7.02572845422934       -1.59150167323062        0.00199397296303
C            8.00536001487139       -2.67773305067325        0.01962587707073
C            7.58263148056121       -4.00697129798538        0.03195314048692
C            8.51137027176128       -5.02938158213263        0.05008075259410
C            9.86766336596347       -4.73861251154180        0.05604324136357
C           10.29425903079199       -3.41935231662004        0.04365369816187
C            9.37039864880137       -2.39202938748259        0.02526721375119
N            7.48486187679601       -0.33374317030317       -0.00923392837968
C            6.55771377738627        0.63206638750822       -0.02419673140330
C            7.01282208044648        2.02186062155025       -0.04094189319151
C            6.08715670995926        3.06406131541625       -0.09546864834994
C            6.51993096703780        4.37559221478187       -0.11172958956557
C            7.87653788796574        4.66182965643846       -0.07373290642835
C            8.80181654200656        3.63050912474020       -0.01933444164077
C            8.37533295837067        2.31636862579188       -0.00337273894254
N            5.26353606212742        0.39440646783174       -0.02636824496015
C            3.00286058272480       -2.51562811705254       -0.01521611281031
C            1.66513051530701       -2.81694107152130       -0.01431607051802
C            0.73093907229518       -1.77427407721079       -0.00499297468978
N           -5.71157251821450       -1.93822729624004       -0.01188461440784
C           -7.53497228464763       -4.05580651371600       -0.03454431046890
C           -8.45706440895416       -5.08383665403800       -0.06769421493576
H          -10.53401657651341       -5.60720977100904       -0.07134578436368
H          -11.30672681269435       -3.26375025137662       -0.08552412133949
H           -9.65286143694393       -1.42144240506309       -0.05533004080548
H           -9.06720841747510        1.44167763752932        0.10642533178817
H           -9.85888978170808        3.78747777878790        0.11370068085182
H           -8.22536551219856        5.63463503165924        0.02658590175485
H           -5.80951779069579        5.14154064698509       -0.06596598536619
H           -5.03061281452919        2.79254575242247       -0.07271164163897
H           -3.69928908832531       -3.32595328966908       -0.01952949481456
H           -1.28356114334377       -3.85312963014573       -0.02134228399215
H           -2.85765761139987        0.86901866901919        0.01898558527528
H            0.11715800922400       -0.32731451798736        2.56438559029819
H            0.07628770542624        1.00568697770354        4.63620691792450
H           -0.07208781317944        3.47239610414341        4.51274811200964
H           -0.17289364193624        4.58420427843691        2.29712983377455
H           -0.17696822058086        4.62388427196953       -2.19347556528524
H           -0.08026224944510        3.55132383129994       -4.42856479649924
H            0.06891704653010        1.08717667772320       -4.59567701659987
H            0.11386768769264       -0.28210472232619       -2.54798103631917
H            2.87288130834144        0.88978633949497        0.01298398134813
H            6.52407403561464       -4.21582090331024        0.01511649471087
H            8.17921326621166       -6.05671751609142        0.01903362065151
H           10.59132594608475       -5.53974435609049        0.00781276448747
H           11.34990785804809       -3.19163030294080       -0.00738991704319
H            9.68451651584203       -1.35945908344455       -0.01246820561865
H            5.03581662647359        2.82561780234179       -0.09510422400411
H            5.80011297661139        5.17951024520960       -0.10844589019677
H            8.21338207103705        5.68807158579017       -0.03594866347668
H            9.85900416673407        3.85160233514699        0.05022349389592
H            9.08191108844656        1.50097645075737        0.06305979890352
H            3.74435071769131       -3.29974862885099       -0.01968482392689
H            1.33226764402433       -3.84384433225201       -0.02023276935383
H           -6.47556613056969       -4.25853345963805        0.00537726882206
H           -8.11913902775855       -6.10952004023168       -0.02594841299798
