  96
 
 C          7.2207449736       -4.6467617134       -0.1110226100
 C          7.8911525833       -3.4341032923       -0.1590969771
 C          7.1819972627       -2.2491015368       -0.1390669713
 C          5.7900980246       -2.2708589747       -0.0715456905
 C          5.0354011389       -1.0194935700       -0.0502218369
 N          5.7123126753        0.1246409850       -0.0307374217
 C          4.9864186112        1.2381419451       -0.0054177713
 C          5.6869430162        2.5207987606        0.0117488674
 C          7.0794556317        2.5584282527        0.0552198150
 C          7.7375536258        3.7725963268        0.0710942725
 C          7.0152603574        4.9557100662        0.0431273597
 C          5.6299370714        4.9237656576       -0.0006795580
 C          4.9653938317        3.7132152048       -0.0160926547
 N          3.6544838587        1.2550064005        0.0045766749
 C          3.0624206759        0.0669801519       -0.0209208404
 C          1.5991172246        0.0341772868       -0.0155310344
 C          0.8773031433        1.1918617948        0.2510399580
 C         -0.5086315372        1.1691063227        0.2587846854
 N         -1.2182730620        2.3464596369        0.5297718562
 C         -2.3049608695        2.4716532763        1.3807399022
 C         -2.7386501304        1.6105211346        2.3767762026
 C         -3.8673328769        1.9677013855        3.0887886399
 C         -4.5338386831        3.1658482452        2.8418798603
 C         -4.0669900367        4.0582599998        1.8981165635
 C         -2.9380701046        3.7147124847        1.1667432723
 C         -2.1774422905        4.3847891170        0.1496053509
 N         -2.3610505266        5.5725732392       -0.4046970523
 C         -1.4970270467        5.9281677311       -1.3365104403
 C         -0.4337733255        5.1352155426       -1.7656926994
 C         -0.2292163298        3.8868368001       -1.2005880261
 C         -1.1191849489        3.5084018596       -0.2088587451
 C         -1.1957772674       -0.0290494559       -0.0155602250
 N         -2.5939673584       -0.0536774678       -0.0311323365
 C         -3.4061144343        0.7773949413       -0.7871803086
 C         -3.0528303564        1.6937598812       -1.7657724488
 C         -4.0675909064        2.4022886395       -2.3796777573
 C         -5.4045443049        2.1856134425       -2.0549827167
 C         -5.7650058834        1.2300474946       -1.1263909553
 C         -4.7596672483        0.5141308915       -0.4912267595
 C         -4.7629554711       -0.5444115525        0.4786919370
 N         -5.7806160941       -1.1517998139        1.0669732679
 C         -5.4795070755       -2.0943624900        1.9397267784
 C         -4.1791492972       -2.4469566038        2.2960585247
 C         -3.1029006979       -1.8109959617        1.7008651767
 C         -3.4049972064       -0.8612728612        0.7391274927
 C         -0.4564260022       -1.1974227949       -0.2745468319
 N         -1.1113492976       -2.4098502874       -0.5282001941
 C         -0.9278528463       -3.5732416001        0.2060327506
 C         -0.0044882800       -3.8480741266        1.2040149208
 C         -0.0571980253       -5.0925886712        1.8036002613
 C         -1.0075629665       -6.0418915703        1.4331332033
 C         -1.9408801978       -5.7674569317        0.4540362410
 C         -1.9035279308       -4.5247024829       -0.1641853328
 C         -2.7103584827       -3.9053048285       -1.1777088422
 N         -3.7502355871       -4.3825062844       -1.8434740709
 C         -4.2902202959       -3.5822181176       -2.7425196154
 C         -3.8043040492       -2.3135227041       -3.0559904486
 C         -2.7099990459       -1.8050540096       -2.3774638052
 C         -2.1787923213       -2.6053798048       -1.3790742818
 C          0.9296882863       -1.1562053291       -0.2726324954
 N          3.7055530578       -1.0939439359       -0.0506244594
 C          5.1206910410       -3.4927323859       -0.0233008731
 C          5.8363008810       -4.6737724939       -0.0427178500
 H          7.7779873413       -5.5719490952       -0.1267846288
 H          8.9697401016       -3.4161437991       -0.2124946643
 H          7.6859790787       -1.2962580137       -0.1768920631
 H          7.6242282972        1.6278244967        0.0777301665
 H          8.8166906922        3.8005436875        0.1055952948
 H          7.5325678815        5.9038424164        0.0556321244
 H          5.0693148608        5.8467536164       -0.0223965219
 H          3.8881083443        3.6701368588       -0.0510802303
 H          1.4068954948        2.1019179303        0.4825395842
 H         -2.2090608217        0.6965856114        2.5996754480
 H         -4.2365564697        1.3032039867        3.8556872374
 H         -5.4172613309        3.4029039866        3.4148412898
 H         -4.5525813116        5.0046595043        1.7223240698
 H         -1.6631223362        6.9034892829       -1.7737196370
 H          0.2252683248        5.4943568722       -2.5409482115
 H          0.5781155500        3.2457800903       -1.5261737245
 H         -2.0226229787        1.8477422264       -2.0515874489
 H         -3.8151714562        3.1360695199       -3.1305886242
 H         -6.1664706847        2.7648420598       -2.5538978154
 H         -6.7973396996        1.0283469005       -0.8901209528
 H         -6.3255332335       -2.5893007158        2.3965888929
 H         -4.0113867259       -3.2093210923        3.0405137394
 H         -2.0881613774       -2.0474163382        1.9873409307
 H          0.7273662717       -3.1162327197        1.5123718372
 H          0.6541793300       -5.3314695708        2.5804283142
 H         -1.0128655196       -7.0016778939        1.9274241899
 H         -2.6907835926       -6.4863976462        0.1656360494
 H         -5.1502594883       -3.9826038239       -3.2615115836
 H         -4.2763228543       -1.7324642710       -3.8325248504
 H         -2.2946250530       -0.8401077655       -2.6277216243
 H          1.4993030242       -2.0423656103       -0.5014656714
 H          4.0433441715       -3.4957998226        0.0312512186
 H          5.3160738952       -5.6195811150       -0.0048990317
