49

C      6.015945   -0.467193   -0.559669
C      4.975387    0.236728    0.329346
C      5.170200   -0.217549    1.782623
C      5.235506    1.749896    0.212089
N      3.566245   -0.057610   -0.079500
C      2.399239    0.582169    0.430195
O      2.367040    1.537804    1.183136
C      1.191421   -0.089001   -0.079034
C     -0.121143    0.292988    0.161532
C     -1.149107   -0.477031   -0.406691
N     -2.513522   -0.116882   -0.182735
C     -3.026077    1.181079   -0.244087
C     -2.427880    2.414145   -0.581650
C     -3.212618    3.571274   -0.575027
C     -4.563645    3.512943   -0.262890
C     -5.164243    2.287982    0.034997
C     -4.393388    1.104076    0.033305
C     -4.716695   -0.265459    0.259734
C     -5.922020   -0.930710    0.576615
C     -5.923689   -2.311623    0.784834
C     -4.741546   -3.033428    0.695889
C     -3.536472   -2.398610    0.380503
C     -3.541080   -1.009208    0.131900
C     -0.842862   -1.606111   -1.200793
C      0.484863   -1.977927   -1.431031
C      1.471388   -1.200545   -0.853394
S      3.186827   -1.447789   -0.973397
O      3.517668   -2.623507   -0.203817
O      3.566642   -1.258256   -2.352941
H      5.898590   -0.187260   -1.612218
H      5.955204   -1.557722   -0.487190
H      7.035170   -0.191790   -0.262739
H      6.190412   -0.015243    2.127579
H      4.987310   -1.292561    1.889640
H      4.483572    0.298031    2.462935
H      6.289233    1.986271    0.401017
H      4.652338    2.330462    0.932918
H      4.983728    2.115448   -0.790120
H     -0.324776    1.143359    0.807882
H     -1.381691    2.486768   -0.861218
H     -2.758671    4.527614   -0.825720
H     -5.161534    4.420827   -0.263254
H     -6.226547    2.247784    0.259432
H     -6.847527   -0.369221    0.669777
H     -6.852897   -2.818170    1.033329
H     -4.749722   -4.104984    0.883141
H     -2.621607   -2.982027    0.351451
H     -1.633809   -2.181580   -1.680611
H      0.730846   -2.838653   -2.046072
