  121
 
 C         12.2929383596        1.6401817507        0.2257051866
 C         11.8578305008        0.1691220530        0.1459338006
 C         12.5352149761       -0.4645377378       -1.0729507611
 C         12.3278766590       -0.5822660561        1.4006076770
 C         10.3402879789        0.1064073256        0.0720489538
 C          9.6583791943       -0.4682909419       -0.9948695280
 C          8.2749821730       -0.5072057602       -1.0282457099
 C          7.5378428924        0.0309845688        0.0153595921
 N          6.1120863197       -0.0080822750       -0.0137342149
 C          5.4643136385       -1.1552980683        0.4047744276
 C          6.2018970018       -2.2536836446        0.8636844127
 C          5.5678602357       -3.4068557637        1.2739677074
 C          4.1843240042       -3.4943378475        1.2395924422
 C          3.4487796838       -2.4089049593        0.8007096466
 C          4.0669338085       -1.2396534188        0.3848999828
 C          3.1960505802       -0.0819806343       -0.0595249134
 C          4.0219865597        1.1007937485       -0.5259659748
 C          3.3609189956        2.2214161791       -1.0049422794
 C          4.0555425320        3.3344211084       -1.4413677695
 C          5.4417181573        3.3270107438       -1.4033981534
 C          6.1180803557        2.2219005091       -0.9329651374
 C          5.4213621891        1.0935545441       -0.4829362580
 C          2.3636669403        0.3581925364        1.1274910143
 C          3.0183511612        0.7723860957        2.2773665064
 C          2.3179266143        1.1739334438        3.3995606641
 C          0.9308871708        1.1532858123        3.3769874058
 C          0.2608026876        0.7459671331        2.2441235922
 C          0.9629126433        0.3501665602        1.0977309233
 N          0.2760086825       -0.0514967970       -0.0316368755
 C         -1.1477777265       -0.0289301214       -0.0201694286
 C         -1.8291364242        1.1780408348       -0.2066948211
 C         -3.2150081264        1.1870873630       -0.1852743156
 C         -3.9758671793        0.0179743911        0.0078028713
 C         -3.2506316645       -1.1758092164        0.1868402445
 C         -1.8650988200       -1.2127809683        0.1807133179
 O         -3.8924031797       -2.3632326269        0.3865449049
 C         -5.2575572204       -2.4597983482        0.3210687723
 C         -5.7423867512       -3.7553306664        0.4585762445
 C         -7.0997931371       -4.0087395199        0.3754661137
 C         -8.0008957760       -2.9682240474        0.1306322222
 C         -9.4841918009       -3.2857929567        0.0167473967
 C         -9.6957100699       -4.2841379432       -1.1320890794
 C        -10.3404652799       -2.0482007630       -0.2673528829
 C         -9.9650200520       -3.9062467742        1.3375872581
 C         -7.4924002893       -1.6833551847        0.0085828377
 C         -6.1292753348       -1.3613608071        0.1214345504
 B         -5.4941938767        0.0431731678        0.0220245925
 C         -6.0839532238        1.4683715314       -0.0625048563
 C         -7.4330223788        1.8354176129        0.0783469394
 C         -7.9001375906        3.1373161154       -0.0277287290
 C         -9.3693674055        3.5044086447        0.1160258251
 C         -9.8527420732        4.1503909171       -1.1916161535
 C        -10.2622213984        2.2947743320        0.4076917196
 C         -9.5256515800        4.5013165548        1.2749245380
 C         -6.9693454308        4.1484341946       -0.2842193427
 C         -5.6231612461        3.8499229119       -0.3951779979
 C         -5.1799944771        2.5378259570       -0.2752778318
 O         -3.8205620398        2.3956739758       -0.3703908191
 C          0.9330452784       -0.4886736694       -1.1655915638
 C          0.2020765867       -0.8829337375       -2.2943761738
 C          0.8426830200       -1.3330982746       -3.4281279799
 C          2.2279031384       -1.4001269164       -3.4690715596
 C          2.9571288610       -0.9963853487       -2.3660972513
 C          2.3324414781       -0.5377149726       -1.2163984599
 C          8.1997945339        0.6093260940        1.0899576799
 C          9.5803364686        0.6435678503        1.1099914272
 H         11.9410078294        2.1854985449       -0.6479690586
 H         11.8970091050        2.1254408353        1.1134670248
 H         13.3782700771        1.7063102422        0.2584096032
 H         12.2787280109       -1.5178204713       -1.1618437806
 H         12.2569816952        0.0512309550       -1.9892811505
 H         13.6154006726       -0.3919340311       -0.9637125142
 H         13.4138354281       -0.5625931598        1.4613605508
 H         12.0042662718       -1.6206734845        1.3620584849
 H         11.9293903002       -0.1340928972        2.3065749395
 H         10.1963388941       -0.8971298949       -1.8236354879
 H          7.7635715205       -0.9581582034       -1.8661346134
 H          7.2784602705       -2.1935574151        0.8975357177
 H          6.1564811459       -4.2418385512        1.6232105311
 H          3.6839292194       -4.3965045283        1.5561134011
 H          2.3700333980       -2.4626301976        0.7777315167
 H          2.2810824871        2.2152830117       -1.0348537434
 H          3.5215645209        4.1972504024       -1.8085407263
 H          5.9991075160        4.1866228541       -1.7441052489
 H          7.1966681392        2.2229777951       -0.9126137783
 H          4.0982016242        0.7750157642        2.2886672411
 H          2.8458751790        1.4943258042        4.2843589449
 H          0.3676131029        1.4542842423        4.2475413466
 H         -0.8176689732        0.7253147897        2.2341662852
 H         -1.2876024434        2.0977414486       -0.3667587810
 H         -1.3507078611       -2.1493728468        0.3324558667
 H         -5.0373246490       -4.5574541791        0.6235728263
 H         -7.4431488641       -5.0250718514        0.4898443644
 H         -9.1611983668       -5.2131559375       -0.9539883013
 H         -9.3381137700       -3.8595083968       -2.0683112738
 H        -10.7542123563       -4.5139539772       -1.2376117942
 H        -11.3858376141       -2.3410392667       -0.3463617022
 H        -10.0499787737       -1.5800566581       -1.2051700207
 H        -10.2551003000       -1.3214269270        0.5368225963
 H         -9.4387847764       -4.8317420737        1.5548074146
 H         -9.7928284810       -3.2151373136        2.1606082123
 H        -11.0301519141       -4.1229633937        1.2839074460
 H         -8.1647952881       -0.8696830210       -0.1951210466
 H         -8.1284016906        1.0437985343        0.2915738548
 H         -9.2984755162        5.0583393308       -1.4131340309
 H        -10.9083861347        4.4039086310       -1.1164448020
 H         -9.7202666592        3.4591781590       -2.0218358622
 H        -10.2156639284        1.5709315289       -0.4022902736
 H         -9.9716420080        1.8107561105        1.3373666508
 H        -11.2954833825        2.6223707830        0.5068992980
 H         -9.1673796975        4.0580607679        2.2022354640
 H        -10.5734215188        4.7674963913        1.4002330361
 H         -8.9618095300        5.4121603777        1.0934321778
 H         -7.2803941304        5.1764808313       -0.3856248378
 H         -4.8945165424        4.6285122242       -0.5699315810
 H         -0.8749747697       -0.8280647121       -2.2697056762
 H          0.2576239313       -1.6325512127       -4.2847502986
 H          2.7322034385       -1.7567693764       -4.3538064215
 H          4.0362886530       -1.0333677419       -2.3912873224
 H          7.6301726444        1.0321590962        1.9044312685
 H         10.0675508938        1.0995902763        1.9577336620
