  80
 
 C          0.7662339977        4.1257829227        0.7294909100
 C          1.9436111495        3.4551070881        1.4274812881
 C          3.2696783101        3.7568645978        0.7315934683
 C          4.4527584321        3.1287736693        1.4679490305
 C          5.7906689404        3.3423924550        0.7570275602
 C          6.0167526075        2.4307301572       -0.4551600474
 O          6.3181524588        1.1025677066       -0.0526006447
 C          5.3984156717        0.1350477265        0.0322672126
 C          5.8963389974       -1.0904566995        0.5520838991
 C          5.0919993824       -2.1836423887        0.7137976932
 C          3.7432366773       -2.0929664053        0.3410190406
 C          2.6454404784       -2.9839457325        0.3850010936
 C          2.4803374851       -4.3101418677        0.8097652069
 C          1.2503336607       -4.8936101204        0.6879201333
 C          0.1464008014       -4.1957961992        0.1289576178
 O         -0.9794149632       -4.9179201898        0.0414812643
 C         -2.1629107235       -4.3576971156       -0.5042959301
 C         -2.8991996133       -3.4619376285        0.4963368663
 C         -4.1855543639       -2.8730479912       -0.0816695397
 C         -3.9419198640       -1.8681206672       -1.2077896737
 C         -5.2158620553       -1.1148686051       -1.5853885765
 C         -4.9738346708       -0.1282444441       -2.7219154240
 C          0.2875045824       -2.8735432768       -0.2967493172
 C          1.5246040075       -2.2769573539       -0.1465476268
 N          1.9154093193       -1.0055166664       -0.4953590375
 C          1.0822204259       -0.0107414377       -1.0408173152
 C          1.4728811122        0.6634535864       -2.2247057985
 C          0.6007046898        1.6232142711       -2.6995707643
 N         -0.5320972679        1.9228977305       -2.1205943843
 C         -0.9549876751        1.2934178940       -0.9855042743
 C         -2.2107568777        1.7158260898       -0.4579345235
 C         -2.9027766184        2.7902304896       -1.1118349879
 C         -4.1189945954        3.2530505395       -0.6826203109
 C         -4.7257014457        2.6753651082        0.4194214442
 F         -5.9406931473        3.1259790582        0.8526407093
 C         -4.1042854333        1.6097498272        1.1092646633
 C         -4.7106174071        1.0035039198        2.2196042581
 N         -5.2092800296        0.4974451143        3.1253399328
 C         -2.8700749279        1.1687130866        0.6515102212
 F         -2.3154320232        0.1333567042        1.3434871107
 C         -0.1085137797        0.3037597979       -0.4329038497
 C          3.2546576141       -0.8703305638       -0.2096760504
 C          4.0593404905        0.2420004561       -0.3540574008
 H          0.8998950317        5.2052439152        0.7031724350
 H         -0.1627416450        3.9098252767        1.2531738710
 H          0.6664364757        3.7670655222       -0.2926562827
 H          1.9930838497        3.8009987297        2.4628036310
 H          1.7800734851        2.3744823710        1.4494066754
 H          3.2168003295        3.3946841087       -0.2971781313
 H          3.4111142432        4.8391914692        0.6859239844
 H          4.2745341667        2.0605843120        1.6120211106
 H          4.5152046090        3.5781990552        2.4616434717
 H          6.6063985980        3.1597177158        1.4592434985
 H          5.8613264359        4.3769216369        0.4181187804
 H          6.9135167761        2.7628939000       -0.9872135663
 H          5.1711418727        2.4636112828       -1.1439267456
 H          6.9388005957       -1.1168920271        0.8259909786
 H          5.4817211558       -3.1010354548        1.1245461609
 H          3.3127323143       -4.8560237424        1.2236607939
 H          1.0772556582       -5.9100067253        1.0029785106
 H         -2.7856650114       -5.2216322170       -0.7509285996
 H         -1.9332391411       -3.8137833390       -1.4251505729
 H         -2.2467048374       -2.6487236267        0.8199982618
 H         -3.1388467764       -4.0595032772        1.3782497299
 H         -4.7145664060       -2.3653773068        0.7283248618
 H         -4.8297084811       -3.6773072760       -0.4429176055
 H         -3.1881546814       -1.1434625811       -0.8912010766
 H         -3.5636805650       -2.3794803343       -2.0952216703
 H         -5.5877591847       -0.5755753915       -0.7101571390
 H         -5.9856809049       -1.8314332255       -1.8812313878
 H         -4.2111474662        0.5955523880       -2.4409436088
 H         -4.6418296159       -0.6499828764       -3.6172041502
 H         -5.8871674911        0.4134123263       -2.9573100751
 H         -0.5305499514       -2.3228595215       -0.7300768811
 H          2.3832627601        0.4170782965       -2.7425917757
 H          0.8256426437        2.1801723628       -3.6012223359
 H         -2.4201024955        3.2272569811       -1.9697346798
 H         -4.6203060116        4.0621361706       -1.1904525802
 H         -0.3759688361       -0.1858371467        0.4876119696
 H          3.6423185554        1.1576053333       -0.7370284721
