  62
 
 O          2.1639046800       -1.6325932209        2.1966239515
 P          2.1149751646       -1.4789809867        0.7295563517
 C          3.7066151706       -0.9969628080       -0.0033647026
 C          4.2348238479       -1.5902757199       -1.1411017983
 C          5.4692872999       -1.1740054709       -1.6115668294
 C          6.1633951289       -0.1698394310       -0.9563371362
 C          5.6327997792        0.4195012162        0.1818221913
 C          4.4032912739        0.0055903272        0.6600439126
 C          1.4154807238       -2.8991458955       -0.1482882000
 C          1.2370144619       -4.0786541113        0.5620966722
 C          0.6832322915       -5.1809374239       -0.0657396715
 C          0.3039651717       -5.0990010574       -1.3959770476
 C          0.4798689862       -3.9187579695       -2.1037167415
 C          1.0359977253       -2.8152374377       -1.4835117342
 C          0.9715713363       -0.0826840749        0.3262961794
 N          1.4789094976        1.0892288675        0.3321353384
 C          0.5696023399        2.1350772962        0.2033139316
 C          1.0363136744        3.4654109375        0.1605057626
 C          2.4200514022        3.7396376878        0.1211871165
 C          2.8776239436        5.0345325419        0.0699371407
 C          1.9834131064        6.1004728303        0.0567667720
 C          0.6169897216        5.8470764975        0.1005009918
 C          0.1418323101        4.5582899110        0.1523912304
 N         -0.7458583104        1.8107284746        0.1842986728
 C         -1.1549750744        0.5823076635        0.1862020382
 N         -2.4844820013        0.2819590529        0.1497458592
 C         -3.0714399515       -0.9447817526        0.4626442686
 C         -2.4986496345       -2.1123420303        0.9429048516
 C         -3.3321506523       -3.1924927968        1.1804148625
 C         -4.7040002306       -3.1138463109        0.9630371845
 C         -5.2836606239       -1.9452521536        0.5004526359
 C         -4.4655271583       -0.8540477983        0.2500071062
 C         -4.7323061275        0.4822483971       -0.2193178474
 C         -5.8929050015        1.1501624923       -0.5795839038
 C         -5.7964673210        2.4636810817       -1.0062149078
 C         -4.5635544780        3.1047842715       -1.0810846074
 C         -3.3933549158        2.4537731046       -0.7283293291
 C         -3.4884007413        1.1479882923       -0.2775076752
 N         -0.2801675078       -0.4783940493        0.2011341495
 H          3.6918319643       -2.3754511297       -1.6470182938
 H          5.8874629641       -1.6358457259       -2.4934420347
 H          7.1220946882        0.1547835985       -1.3318887780
 H          6.1753752234        1.1994974765        0.6948612804
 H          3.9669673312        0.4446034474        1.5471436354
 H          1.5328283753       -4.1095104128        1.6016384247
 H          0.5442447686       -6.0994605258        0.4843544846
 H         -0.1342131589       -5.9563266796       -1.8842153298
 H          0.1800398337       -3.8580715915       -3.1392933355
 H          1.1679747990       -1.8857925647       -2.0206761390
 H          3.1049514454        2.9047201013        0.1304145762
 H          3.9407955585        5.2266273051        0.0396804096
 H          2.3475987748        7.1156905843        0.0172370919
 H         -0.0816941168        6.6719809578        0.0962949075
 H         -0.9184032342        4.3611935719        0.2032625904
 H         -1.4375042620       -2.1772003542        1.1214305134
 H         -2.9041070916       -4.1115852726        1.5505323391
 H         -5.3226380455       -3.9747537929        1.1658791262
 H         -6.3481605212       -1.8791419191        0.3384601736
 H         -6.8487270556        0.6528753299       -0.5268627449
 H         -6.6879813129        2.9989468158       -1.2954116980
 H         -4.5137778131        4.1249657425       -1.4299597091
 H         -2.4324819463        2.9378507049       -0.8064163517
