  59
 
 Br         8.0736225013       -3.5626130131       -2.4734014532
 C          6.7169791983       -2.4596581148       -1.7087144372
 C          5.3828170992       -2.7804656173       -1.9523635488
 C          4.3679337202       -2.0144425488       -1.4158284093
 C          4.7171753319       -0.9275866422       -0.6246335525
 C          6.0744198807       -0.5938872912       -0.4025652171
 C          7.0879753616       -1.3709188174       -0.9467593333
 C          6.0744439467        0.5937896932        0.4024632566
 C          7.0880315646        1.3708046305        0.9466210772
 C          6.7170804336        2.4595510757        1.7085878999
 Br         8.0737691491        3.5624843111        2.4732256241
 C          5.3829322850        2.7803814156        1.9522833468
 C          4.3680171635        2.0143749564        1.4157845362
 C          4.7172128053        0.9275122759        0.6245787063
 N          3.9107964306       -0.0000305649       -0.0000127656
 C          2.5078550965       -0.0000169863        0.0000065107
 C          1.8098939895        1.1567145568       -0.3407751831
 C          0.4310009720        1.1558978635       -0.3357618953
 C         -0.2709922095        0.0000064786        0.0000320078
 C         -1.7347226605        0.0000180674        0.0000410697
 N         -2.3555625871        1.1501533347       -0.2394651036
 C         -3.6861103112        1.1061284634       -0.2255889270
 C         -4.4177650258        2.3479017658       -0.4723047521
 C         -3.7259417476        3.5345978587       -0.7081005118
 C         -4.4205670070        4.7059165756       -0.9384732668
 C         -5.8069086130        4.7042905771       -0.9353378640
 C         -6.4999045264        3.5266056567       -0.7011920357
 C         -5.8114560231        2.3516775047       -0.4705191960
 N         -4.3884342149        0.0000314761        0.0000180103
 C         -3.6861254058       -1.1060705043        0.2256476004
 C         -4.4177974712       -2.3478337510        0.4723627164
 C         -3.7259910520       -3.5345143409        0.7082858780
 C         -4.4206327446       -4.7058240365        0.9386550468
 C         -5.8069740503       -4.7042048419        0.9353871915
 C         -6.4999532580       -3.5265354068        0.7011139910
 C         -5.8114883038       -2.3516157035        0.4704472042
 N         -2.3555783210       -1.1501088639        0.2395473298
 C          0.4309873286       -1.1558967636        0.3358137406
 C          1.8098806902       -1.1567361195        0.3408030112
 H          5.1468151557       -3.6333910234       -2.5694028280
 H          3.3359273891       -2.2526985938       -1.6199469154
 H          8.1264494557       -1.1300431338       -0.7839480854
 H          8.1264958737        1.1299113764        0.7837734486
 H          5.1469664077        3.6333116010        2.5693297933
 H          3.3360219538        2.2526486338        1.6199386511
 H          2.3559804268        2.0438604587       -0.6248428731
 H         -0.1234121214        2.0419169600       -0.6007948976
 H         -2.6474855506        3.5172869779       -0.7054870181
 H         -3.8829532687        5.6248458445       -1.1209775567
 H         -6.3477420539        5.6218601786       -1.1153067041
 H         -7.5800082532        3.5280318405       -0.6990373157
 H         -6.3335154418        1.4260396938       -0.2864159766
 H         -2.6475347110       -3.5171987737        0.7057731330
 H         -3.8830320208       -5.6247409084        1.1212600788
 H         -6.3478203089       -5.6217674167        1.1153533415
 H         -7.5800567726       -3.5279667977        0.6988564455
 H         -6.3335345794       -1.4259898962        0.2862463604
 H         -0.1234354554       -2.0419051994        0.6008618694
 H          2.3559574596       -2.0438914320        0.6248597459
