  81
 
 F         -8.8293492511       -1.6548484619        0.3053382839
 C         -8.5994792986       -0.4500193788       -0.2767082017
 F         -8.7696223496       -0.6750543569       -1.6028251062
 F         -9.6344266079        0.3260086314        0.0911274932
 C         -7.2624340721        0.1145104270        0.0539903372
 C         -7.1392000799        1.3039871641        0.7598341422
 C         -5.8842002349        1.8071866249        1.0484970727
 C         -4.7281608941        1.1331516774        0.6357411080
 N         -3.5126241646        1.6357494151        0.8506202112
 C         -2.4204066534        0.9701425474        0.4546026297
 C         -1.1320292670        1.6346355557        0.6207161175
 C         -0.8841296846        2.3898832903        1.7698982564
 C          0.3341367189        3.0085965440        1.9577338435
 C          1.3266573078        2.9004171211        0.9874526527
 N          2.5892993963        3.5114714682        1.1893666344
 C          2.7005931274        4.8957185077        1.2589424166
 C          1.6139884969        5.7394761735        1.0433485883
 C          1.7619898640        7.1134892421        1.1203359743
 C          2.9959638813        7.6720011762        1.4056456915
 C          4.0938717371        6.8490496408        1.5982358095
 C          3.9540379260        5.4737781044        1.5199470571
 O          5.0834856601        4.7187755225        1.6947937329
 C          4.9630671338        3.3581774064        1.5920948486
 C          6.1165413779        2.6086564160        1.7516756416
 C          6.0633478887        1.2257923764        1.6840475151
 C          4.8494603540        0.5965545177        1.4701850491
 C          3.6929320794        1.3393136370        1.3070183206
 C          3.7296113893        2.7308793423        1.3487320093
 C          1.0727111862        2.1903575208       -0.1837580690
 C         -0.1427268356        1.5664592672       -0.3651621907
 C         -2.5508794777       -0.3097238866       -0.1182460149
 C         -1.3957477367       -1.1672366314       -0.3878789994
 C         -0.3578016824       -1.2880155305        0.5391831187
 C          0.7300491269       -2.0914739423        0.2717194323
 C          0.8009423853       -2.7934807165       -0.9289606915
 N          1.9366675346       -3.5905580880       -1.2176158756
 C          3.1750736574       -2.9939893751       -1.4319614434
 C          3.3562208522       -1.6141952153       -1.3817593884
 C          4.6038261515       -1.0570235590       -1.6038459694
 C          5.6927171768       -1.8635955365       -1.8844088850
 C          5.5278363879       -3.2373282622       -1.9595782509
 C          4.2820748837       -3.8015180950       -1.7419118688
 O          4.1844554082       -5.1632672226       -1.8556234435
 C          2.9604129487       -5.7358894996       -1.6307225467
 C          2.8800628813       -7.1148467203       -1.7249294252
 C          1.6773972413       -7.7599024256       -1.4849921687
 C          0.5602106243       -7.0204767061       -1.1373516433
 C          0.6324726896       -5.6413126131       -1.0431425608
 C          1.8261631223       -4.9740635424       -1.3046925659
 C         -0.2458280214       -2.7093457445       -1.8420000334
 C         -1.3374160424       -1.9103038662       -1.5674904145
 N         -3.7561841945       -0.8036307099       -0.3952554128
 C         -4.8619733016       -0.1169545111       -0.0683511391
 C         -6.1334935308       -0.5999985771       -0.3591530929
 H         -8.0227223665        1.8362876718        1.0768742961
 H         -5.7725891862        2.7358898800        1.5847061925
 H         -1.6574872514        2.4667143010        2.5184521985
 H          0.5258266243        3.5726190284        2.8585736391
 H          0.6509743515        5.3139456863        0.8102554944
 H          0.9045044334        7.7464245873        0.9525736707
 H          3.1114787687        8.7422165734        1.4699474695
 H          5.0717083978        7.2529829189        1.8073066248
 H          7.0431146943        3.1299213661        1.9326882161
 H          6.9655702129        0.6482012005        1.8065285181
 H          4.7971693887       -0.4797528623        1.4266941324
 H          2.7509129382        0.8400856512        1.1495263427
 H          1.8294211000        2.1431897107       -0.9525641569
 H         -0.3409189791        1.0377938058       -1.2850083544
 H         -0.4180925626       -0.7611615574        1.4793530996
 H          1.5265413656       -2.1894250544        0.9940230652
 H          2.5120037727       -0.9779194583       -1.1715068201
 H          4.7216303595        0.0137625073       -1.5531650657
 H          6.6657365857       -1.4308393633       -2.0531487535
 H          6.3519248955       -3.8931939385       -2.1912440978
 H          3.7721694594       -7.6629834066       -1.9831950507
 H          1.6215567594       -8.8340331853       -1.5622423103
 H         -0.3771095242       -7.5143543527       -0.9333567292
 H         -0.2404492026       -5.0749444167       -0.7602616167
 H         -0.1964614163       -3.2663806805       -2.7659285938
 H         -2.1523729876       -1.8380509591       -2.2711872045
 H         -6.2373194047       -1.5313389117       -0.8935181895
