  41
 
 C         -5.6383889346        1.8222036437       -0.0141229086
 O         -4.2356345642        1.6790850995       -0.0250117793
 C         -3.7034837677        0.4204724360        0.0020780945
 C         -4.4740944117       -0.7663716472        0.0311703281
 C         -3.8764409034       -2.0367158872        0.0727897034
 O         -4.4719464184       -3.1159944566        0.1026705644
 O         -2.4871928871       -2.1062824464        0.0824077513
 C         -1.7218436554       -0.9785334517        0.0399038985
 C         -0.3588970462       -1.1665189120        0.0445830744
 C          0.4691113175       -0.0213430026       -0.0124518573
 C         -0.0793999936        1.2813291953       -0.0184498189
 C         -1.4421756283        1.4722710481       -0.0142918120
 C         -2.3059680116        0.3209551749        0.0019206309
 C          1.0477319152        2.1856975651       -0.0159638998
 C          1.1652058551        3.5632590347       -0.0416564498
 C          2.4366758094        4.1215607986       -0.0614307380
 C          3.5775433400        3.3201469927       -0.0780734235
 C          3.4860907422        1.9403404682       -0.0562139802
 C          2.2156636268        1.3757408580       -0.0001033355
 N          1.8406506679        0.0500242499        0.0026435207
 C          2.7143200528       -1.0394369121       -0.0012048091
 C          2.5246004418       -2.0866032859       -0.9050641264
 C          3.3933522583       -3.1605575888       -0.9045651486
 C          4.4532372625       -3.2045770162       -0.0106632177
 C          4.6420345812       -2.1656509453        0.8889247675
 C          3.7813612288       -1.0852921746        0.8983349320
 H         -6.0944864947        1.3641585909       -0.8969281165
 H         -6.0782284838        1.3897112132        0.8895135574
 H         -5.8180129254        2.8960404507       -0.0279914448
 H         -5.5499265593       -0.7518310871        0.0251623609
 H          0.0382840260       -2.1656325556        0.1069972352
 H         -1.8932247681        2.4482359519       -0.0143600452
 H          0.2858367821        4.1879075915       -0.0516926412
 H          2.5460052174        5.1952989691       -0.0783304372
 H          4.5504527746        3.7855291598       -0.1150569263
 H          4.3719121415        1.3262242864       -0.0958742991
 H          1.7166671776       -2.0332486938       -1.6187736625
 H          3.2470179835       -3.9636359059       -1.6109577002
 H          5.1283017309       -4.0465081363       -0.0142258583
 H          5.4587481877       -2.2024567830        1.5937847701
 H          3.9036509209       -0.2930185572        1.6209124052
