58
 xtb: 6.7.1 (edcfbbe)
C            6.63532380631226       -2.60087688999245       -1.24791216523335
C            5.36780132527347       -3.13327826453835       -1.07015408945572
C            4.31967174928295       -2.32855578955194       -0.66287706109271
C            4.51853373378759       -0.97093875010040       -0.41268471114849
C            5.79812421449179       -0.43490879098060       -0.63908076652036
C            6.84539967677489       -1.24736735274938       -1.04314137276432
O            6.06110999844977        0.89709465404940       -0.49134850946264
C            4.99903143517806        1.72836293710472       -0.24505320639812
C            5.25376778494344        3.09020835749030       -0.24269743196214
C            4.22732787940422        3.98852931498847       -0.00152820765344
C            2.94600855532830        3.51828706365861        0.23559152919528
C            2.68536852427659        2.15987640784659        0.23911811169772
C            3.70333746448320        1.24026783573899       -0.00275533452478
N            3.48911214938996       -0.13729326763271        0.01248568532358
C            2.31612156528599       -0.69270368741493        0.56330767720926
C            2.41683379771113       -1.61135381456139        1.59474518734668
C            1.24739494917225       -2.12050309208349        2.15087462814929
C            0.00125060341806       -1.68399656833055        1.67689733445709
C           -1.24373047967233       -2.12122339232210        2.15336810362425
C           -2.41450689143096       -1.61293001838226        1.59929188983775
C           -2.31618028903614       -0.69422756675651        0.56776862264121
N           -3.49053345214998       -0.13985362374657        0.01864666738238
C           -4.51619619918840       -0.97444168214550       -0.41355477174824
C           -4.31464543118820       -2.33197218023190       -0.66224080266992
C           -5.35931665797472       -3.13742461738149       -1.07713104515245
C           -6.62592260687450       -2.60585404280747       -1.26461015782697
C           -6.83852725319838       -1.25256707795004       -1.06094352518377
C           -5.79482937947627       -0.43942518027091       -0.64883015005110
O           -6.06021478213290        0.89233161655532       -0.50339098499920
C           -5.00155306173032        1.72414786284792       -0.24412255618624
C           -5.25844211563280        3.08557300002986       -0.23865814250065
C           -4.23538547236123        3.98462157935319        0.01485767753151
C           -2.95531710894866        3.51547233026530        0.26157488919842
C           -2.69256100165245        2.15748489346099        0.26203596922896
C           -3.70697605196848        1.23710281000248        0.00718869002475
N           -1.13975026869306       -0.26812459592912        0.08686122036000
C           -0.00005957770456       -0.71947601705556        0.60428628025563
N            1.13841564448867       -0.26771265807776        0.08440452765273
H            7.48409898992567       -3.22127033953727       -1.50852404923423
H            5.21195386456056       -4.17289410350748       -1.25874170010713
H            3.34230418803337       -2.73904266709489       -0.57121898864743
H            7.83617787186047       -0.79029553582096       -1.12353664618675
H            6.26644844479919        3.42531009875442       -0.38553693315461
H            4.42517626535147        5.04886604326659        0.00434167895609
H            2.12550602638684        4.20851081879069        0.37889484438163
H            1.67789848193380        1.78915935520341        0.36031309649758
H            3.38509177276078       -1.91312470195925        1.94982440338798
H            1.29100883431789       -2.85570154223949        2.92697496905539
H           -1.28643875063876       -2.85640213088472        2.92875647222521
H           -3.38242272102216       -1.91550085723242        1.95370968761607
H           -3.33782247818765       -2.74188607004495       -0.56666133392940
H           -5.20266210685410       -4.17737393520488       -1.26329992457861
H           -7.47448159261728       -3.22776563690849       -1.52462248352746
H           -7.83080324879702       -0.79734594919416       -1.14053500450467
H           -6.27041817052713        3.41923709108831       -0.38837586182506
H           -4.43360312301637        5.04459891191989        0.01509702272131
H           -2.13485160272415        4.20666934419134        0.40078838614835
H           -1.68357522878764        1.78833269093356        0.37922818593297
