  45
 
 C         -4.7753594838        3.5102557074        0.4222090348
 C         -3.3922656353        3.5532021045        0.4841322333
 C         -2.6473676495        2.3956490473        0.3611278454
 C         -3.2723557385        1.1650134787        0.1555489451
 C         -4.6773032968        1.1277605971        0.1451470839
 C         -5.4165266781        2.2931200106        0.2674511502
 O         -5.3741539275       -0.0417886376        0.0440131024
 C         -4.6588755840       -1.1992304217       -0.0677346406
 C         -5.3798915788       -2.3772103728       -0.1772818930
 C         -4.7205192348       -3.5832682803       -0.3418781353
 C         -3.3380743561       -3.6025295351       -0.4260423881
 C         -2.6111706613       -2.4322716160       -0.3159787283
 C         -3.2538668613       -1.2123490314       -0.1014089128
 N         -2.5528939557       -0.0173632638        0.0201275112
 C         -1.1509454622       -0.0048956531        0.0065215346
 C         -0.4186528683       -0.7611949765        0.9509888774
 C          0.9395223826       -0.7378253411        0.9529447574
 C          1.6668943450        0.0233824655       -0.0219414524
 C          3.0489904209        0.0185542055       -0.0112786044
 N          3.8149408262       -0.6485257103        0.8500666681
 C          5.1077062360       -0.4775893998        0.6298877531
 C          6.1554568491       -1.0548937241        1.3774876167
 C          7.4547505925       -0.7856133294        1.0321868747
 C          7.7665870208        0.0505261377       -0.0468073041
 C          6.7630730382        0.6377190178       -0.8040971513
 C          5.4514390999        0.3786571463       -0.4734880093
 S          4.0130073018        0.9716020049       -1.2315655657
 C          0.9066798624        0.7681017432       -0.9793857581
 C         -0.4527540810        0.7645367309       -0.9507438646
 H         -5.3558906123        4.4142969460        0.5133808789
 H         -2.8851162840        4.4928251013        0.6373630294
 H         -1.5730129132        2.4364950382        0.4368465301
 H         -6.4918920943        2.2197097773        0.2472396930
 H         -6.4558848586       -2.3222162354       -0.1395080959
 H         -5.2868718212       -4.4971977549       -0.4231376355
 H         -2.8173749343       -4.5334681881       -0.5866113055
 H         -1.5376118722       -2.4550097212       -0.4084927024
 H         -0.9607297494       -1.3193899611        1.7013019035
 H          1.5118026876       -1.2772397721        1.6895350238
 H          5.9057881727       -1.6971694673        2.2066628007
 H          8.2605738477       -1.2256963447        1.6018187463
 H          8.7998822432        0.2415598614       -0.2931606539
 H          7.0013304407        1.2833893622       -1.6355973268
 H          1.4374493248        1.3258632546       -1.7358219054
 H         -1.0189771086        1.3126583546       -1.6905633365
