  73
 
 O          4.9480589396        1.6008506059        1.8546504143
 C          5.3007168855        0.5899072247        1.2561489153
 C          6.6938695417        0.1333884237        1.2062048295
 C          7.7021899172        0.8459103115        1.8655217325
 C          9.0087420513        0.4188523423        1.8234609092
 C          9.3377762113       -0.7364488376        1.1172416523
 C          8.3647794705       -1.4554960884        0.4585140678
 C          7.0370430580       -1.0259251766        0.4986853720
 O          6.1277503848       -1.7764185504       -0.1683060678
 C          4.8264327842       -1.4086808123       -0.1504690962
 C          3.9235245667       -2.2175614678       -0.8440695642
 C          2.5853140182       -1.9019500920       -0.8562335837
 C          2.0988085672       -0.7713273386       -0.1847077581
 C          0.6629959321       -0.4496824599       -0.1973670627
 C         -0.2855621460       -1.4642526789       -0.1135863967
 C         -1.6430113476       -1.1619713678       -0.1124117311
 N         -2.5846797670       -2.1993245251       -0.0534501418
 C         -2.6104565628       -3.3034576739       -0.8840169262
 C         -1.7907061260       -3.6200245863       -1.9579952475
 C         -2.0523985568       -4.7882134337       -2.6483760988
 C         -3.1088370976       -5.6232938072       -2.2898383292
 C         -3.9436327777       -5.3005989479       -1.2382662765
 C         -3.7007932163       -4.1306665288       -0.5294469015
 C         -4.3591468805       -3.4872193943        0.5736917067
 C         -5.4624966360       -3.8141650214        1.3518456432
 C         -5.8281465225       -2.9615810861        2.3747854166
 C         -5.0990754274       -1.8033559491        2.6369734588
 C         -3.9972147982       -1.4590368925        1.8776499581
 C         -3.6400628451       -2.2972762048        0.8317808856
 C         -2.0638155467        0.1605535562       -0.1946578571
 C         -1.1190939560        1.1785492691       -0.2744434717
 N         -1.5342742488        2.5133059307       -0.3826408948
 C         -1.1146254020        3.4110105024       -1.3463789644
 C         -0.2490745513        3.2224582599       -2.4146365654
 C         -0.0181132921        4.2944914652       -3.2558277819
 C         -0.6361055335        5.5265699448       -3.0515046216
 C         -1.5157506400        5.7136795825       -2.0037449190
 C         -1.7638061652        4.6507724644       -1.1443947842
 C         -2.6100309358        4.4868120369        0.0049091573
 C         -3.4650970030        5.3390208124        0.6921646690
 C         -4.1284375428        4.8575621458        1.8035430762
 C         -3.9353724003        3.5489311214        2.2413370279
 C         -3.0895686317        2.6839224908        1.5738367481
 C         -2.4400393588        3.1527601280        0.4413094957
 C          0.2374129076        0.8731659436       -0.2723012318
 C          3.0006683850        0.0293435644        0.4938475172
 C          4.3639230490       -0.2720774618        0.5241782740
 H          7.4128492451        1.7365467830        2.4037139638
 H          9.7780109168        0.9756374348        2.3356169851
 H         10.3629435820       -1.0723657669        1.0843409987
 H          8.6000385563       -2.3517036789       -0.0937333725
 H          4.3007622529       -3.0847799272       -1.3627163811
 H          1.9015528601       -2.5290845032       -1.4068914248
 H          0.0250654769       -2.4925867908       -0.0143824515
 H         -0.9839262539       -2.9676688091       -2.2559465034
 H         -1.4274700977       -5.0581395775       -3.4872347551
 H         -3.2797958595       -6.5296994762       -2.8519929821
 H         -4.7724026251       -5.9395251474       -0.9720189882
 H         -6.0183783248       -4.7197776514        1.1597368118
 H         -6.6853427813       -3.1963124112        2.9886913604
 H         -5.3992899043       -1.1625885753        3.4533922259
 H         -3.4263763938       -0.5712722313        2.1013471018
 H         -3.1169082726        0.3941712107       -0.2276812996
 H          0.2238652428        2.2684033000       -2.5921577862
 H          0.6554155030        4.1734370296       -4.0918113306
 H         -0.4274695935        6.3412082705       -3.7294901980
 H         -2.0057666667        6.6640883515       -1.8534983010
 H         -3.6013515838        6.3585168129        0.3634410692
 H         -4.7993116132        5.5038752534        2.3503825855
 H         -4.4542410969        3.2042528862        3.1239983752
 H         -2.9296522421        1.6795520337        1.9338847663
 H          0.9596560235        1.6721230774       -0.3339809147
 H          2.6769478957        0.9018773596        1.0417797919
