53
 xtb: 6.7.1 (edcfbbe)
C           -4.71088785557842       -0.50793487564896        1.62407322812964
C           -4.05252201458585       -0.28117513008787        0.25089531503282
C           -5.11489575345557       -0.32215483670082       -0.86297599601021
C           -3.39753123771484        1.08750674857126        0.24600654075023
C           -4.17172667389098        2.21825680002482        0.46778331831638
C           -3.62818656740438        3.48958527663270        0.48093901616652
C           -2.27011532676208        3.64719740748822        0.27178645364005
C           -1.47703388780442        2.54122125268163        0.04869779868448
C           -2.02677669941224        1.25642316985851        0.02673006017320
N           -1.20408338870013        0.16422797258071       -0.19955313200693
C            0.18146773387923        0.38205444084112       -0.42643207142324
C            0.63619874884409        0.70586637256187       -1.70200002914738
C            1.98230003545278        0.92359833044973       -1.91478138622131
C            2.89363556823586        0.80171721176609       -0.86545226247923
C            4.32964782454025        1.07203848702267       -1.14004694623739
O            4.67098474551143        1.86973473333304       -1.99101682164472
C            5.32297220069216        0.33795206671509       -0.31497759937369
C            6.53085181856232        0.96493986828361       -0.01433612883068
C            7.48770061233138        0.31080214932249        0.73822920719338
C            7.25671779336703       -0.98407388023978        1.17808709973544
C            6.06944376803266       -1.62443365150185        0.85906999874046
C            5.10208444013284       -0.96859780972624        0.11929951345220
C            2.43081761223385        0.48872755128990        0.41285583580248
C            1.08219052018509        0.28261468234396        0.63036312594136
C           -1.69104253283584       -1.13283704331568       -0.21364215457983
C           -0.81698379593773       -2.19569737864854       -0.45896821020215
C           -1.27160932983832       -3.49753315948448       -0.47864864887601
C           -2.61079663933704       -3.76210192529661       -0.25672998829911
C           -3.47838498416763       -2.71090819586397       -0.02315197075325
C           -3.04848763272791       -1.39137717489804        0.00262057964736
H           -5.44320822789325        0.24904838710834        1.84542948617722
H           -3.94770942603939       -0.49864576737198        2.40703389694057
H           -5.20318696179105       -1.48459762480278        1.65661325305141
H           -4.64865019774089       -0.13468066461367       -1.82360246584730
H           -5.86206870385715        0.47267599450238       -0.69675851227393
H           -5.62729497468740       -1.26260789314436       -0.88480233549262
H           -5.22164043197464        2.11235797900658        0.67092862434121
H           -4.24173750263819        4.34583103216511        0.70442494635490
H           -1.80806068575167        4.62554204781613        0.31451781675833
H           -0.40982095501034        2.66509145120294       -0.10382456579956
H           -0.06783402361656        0.70841767384694       -2.53021237018490
H            2.35705484876406        1.09872778869511       -2.92021451580636
H            6.70153693559036        1.96291328753036       -0.42051653103485
H            8.42020309689438        0.82999333986109        0.95905894935592
H            8.00118661744918       -1.44920870860806        1.80682077672342
H            5.88722661076920       -2.59579560739879        1.26842732509924
H            4.17703674683896       -1.46387275610138       -0.09033227470611
H            3.11898583035824        0.49455139328721        1.23761771302982
H            0.70961716667610        0.11603323742243        1.62309783825231
H            0.22248968860712       -1.99787527601204       -0.65406859566890
H           -0.59194912831891       -4.30343854939958       -0.70646042146005
H           -2.99546082415869       -4.77189963535523       -0.31343783453486
H           -4.53140752679384       -2.92648343806322        0.11686669554003
