  72
 
 N          1.9570205522        4.3777654494        3.2918609441
 C          1.0521956867        3.7703606570        2.9304643644
 C         -0.0999243971        3.0923975307        2.4800920828
 C         -1.2919604120        3.6094183412        3.0288981739
 N         -2.2291981717        4.0360911397        3.5369873132
 C         -0.0608139368        2.0370914620        1.6046123856
 C          1.2083637579        1.4320602054        1.2170140266
 C          1.4113125694        1.0200843950       -0.1040689064
 C          2.6063461767        0.4643965834       -0.4972030908
 C          3.6414779976        0.2764513447        0.4254493376
 N          4.8452383966       -0.2920433506        0.0335592530
 C          5.3524943170       -0.0679950916       -1.2555841939
 C          5.2373410558        1.1860743289       -1.8532389466
 C          5.7463463404        1.4001236101       -3.1195789578
 C          6.3823166659        0.3761926120       -3.8024435931
 C          6.5042932629       -0.8696175070       -3.2092141883
 C          5.9914513191       -1.0960803710       -1.9464694466
 C          5.5810035341       -1.0865640229        0.9268557557
 C          4.9315851418       -1.9859228256        1.7708825630
 C          5.6612439462       -2.7704453602        2.6429693287
 C          7.0428772628       -2.6781637548        2.6802060067
 C          7.6924425274       -1.7905243256        1.8381962556
 C          6.9709142600       -0.9958717145        0.9682946472
 C          3.4328563073        0.6662581168        1.7522391011
 C          2.2427975784        1.2399003415        2.1364898959
 C         -1.2833329384        1.4813161633        1.0430542068
 C         -2.3713385696        2.2887720029        0.6968964424
 C         -3.5277639063        1.7403391620        0.1949251193
 C         -3.6503199165        0.3560685682        0.0298249217
 N         -4.8276788993       -0.1977590952       -0.4472351589
 C         -6.0637823558        0.4059145667       -0.1604156735
 C         -6.3080591653        0.9562079037        1.0965229684
 C         -7.5286223861        1.5424153748        1.3709841673
 C         -8.5215687960        1.5795610645        0.4057535975
 C         -8.2844321964        1.0277893424       -0.8424686906
 C         -7.0639708166        0.4471622175       -1.1297043260
 C         -4.8074158510       -1.3757553517       -1.2093049229
 C         -5.7884165327       -2.3486490175       -1.0254648730
 C         -5.7749589657       -3.5007340553       -1.7877453432
 C         -4.7850243938       -3.7033112264       -2.7354034074
 C         -3.8074142630       -2.7395457814       -2.9204672684
 C         -3.8169341728       -1.5805420798       -2.1686289948
 C         -2.5563307472       -0.4535690086        0.3569305588
 C         -1.3962425103        0.1006790682        0.8433352334
 H          0.6227082571        1.1592998733       -0.8295131056
 H          2.7480042614        0.1599340096       -1.5235963663
 H          4.7547254448        1.9892794733       -1.3158284739
 H          5.6545339628        2.3766742210       -3.5713782193
 H          6.7824922020        0.5488602069       -4.7898238290
 H          6.9965727233       -1.6738517366       -3.7356606338
 H          6.0815165566       -2.0694061446       -1.4866621454
 H          3.8549265341       -2.0671761359        1.7342026201
 H          5.1474201792       -3.4646301174        3.2913839541
 H          7.6096943647       -3.2948127660        3.3608231523
 H          8.7689513507       -1.7097463852        1.8639049522
 H          7.4773572771       -0.2981306558        0.3177153605
 H          4.2193280185        0.5255344007        2.4780477632
 H          2.1044249592        1.5218155404        3.1693883381
 H         -2.2936196473        3.3618610884        0.7851298698
 H         -4.3492970916        2.3825771151       -0.0840964600
 H         -5.5393332248        0.9189849051        1.8542962129
 H         -7.7064776456        1.9655437970        2.3481826655
 H         -9.4749183428        2.0353154516        0.6252792076
 H         -9.0519936945        1.0558055382       -1.6016071370
 H         -6.8765898616        0.0236571930       -2.1056828498
 H         -6.5564048857       -2.1943747533       -0.2818508419
 H         -6.5389330327       -4.2485054994       -1.6351839899
 H         -4.7763790288       -4.6057751707       -3.3272821287
 H         -3.0364466326       -2.8861580756       -3.6624438795
 H         -3.0620256979       -0.8234486645       -2.3235235032
 H         -2.6348843009       -1.5244084956        0.2421378211
 H         -0.5717693603       -0.5425138257        1.1149839773
