  110
 
 C         -4.2292105094       -4.5213329745       -3.2178956674
 C         -3.7766212660       -3.2794319112       -4.0008545115
 C         -4.9585593253       -2.7096432720       -4.7994999276
 C         -2.6961337452       -3.7150704423       -4.9954318056
 C         -3.2865524031       -2.2257232909       -3.0164092571
 C         -1.9894568420       -1.7078788603       -3.0536324520
 C         -1.5361006141       -0.7601027140       -2.1524333493
 C         -2.4057749347       -0.3184197700       -1.1703187024
 C         -3.7312249133       -0.8005330835       -1.1313447925
 C         -4.1595080955       -1.7485529653       -2.0465687706
 C         -4.3872192098       -0.1132515278       -0.0504999719
 C         -5.6668735991       -0.1823969475        0.4758981346
 C         -6.0157157530        0.6027530900        1.5679028810
 C         -7.4305699311        0.5124792829        2.1244128547
 C         -7.6641227538        1.4485623224        3.3142353633
 C         -7.6928846774       -0.9271393626        2.5920583566
 C         -8.4295353752        0.8897980000        1.0200888774
 C         -5.0419483390        1.4368112598        2.1229426239
 C         -3.7559813841        1.5237092862        1.6182108919
 C         -3.4311756853        0.7600975338        0.5101831107
 N         -2.2311045680        0.6291718018       -0.1723809149
 C         -1.0585752105        1.3318496758        0.0998223618
 C         -1.1039665446        2.7089617961        0.3049057712
 C          0.0663509883        3.4046005775        0.5994022063
 C          0.0643658058        4.8568781921        0.8726895574
 O          0.9721167498        5.4167390996        1.4618761286
 C         -1.1086055016        5.6348344527        0.3936134747
 C         -1.6325938184        5.5291637778       -0.8964657117
 N         -2.6580501241        6.2587210371       -1.2978327779
 C         -3.1594012541        7.1219614747       -0.4326607357
 N         -2.7265816694        7.3332251188        0.7981795895
 C         -1.7123451972        6.5951504326        1.2092962698
 C          1.2805016095        2.7263892358        0.6839300777
 C          1.3359312131        1.3567751222        0.4455554805
 N          2.5524333836        0.6809051951        0.5084006121
 C          2.7936705941       -0.5124473117        1.1720101369
 C          1.9566252293       -1.2887366583        1.9579220301
 C          2.4797774312       -2.4297151079        2.5338314434
 C          3.8124961138       -2.8273597177        2.3651224077
 C          4.2890028578       -4.1107101415        3.0316196797
 C          5.7624342133       -4.4126868831        2.7409728370
 C          4.1199912312       -3.9821441430        4.5528681805
 C          3.4511205592       -5.2889753700        2.5125938723
 C          4.6474351626       -2.0251019263        1.6037120259
 C          4.1474216861       -0.8717980463        1.0135141823
 C          4.7532814796        0.1544994474        0.2074582681
 C          6.0336676864        0.3343411764       -0.2910550271
 C          6.3253741955        1.4389423448       -1.0815551008
 C          7.7438480895        1.6209988724       -1.6056457583
 C          8.1167944565        0.4115888134       -2.4762763805
 C          7.9088748044        2.8859695277       -2.4535890892
 C          8.7076463368        1.7196678335       -0.4134304864
 C          5.2960185534        2.3383273213       -1.3718382569
 C          4.0087809019        2.1824232231       -0.8880275262
 C          3.7398510913        1.0945960149       -0.0756167063
 C          0.1619904547        0.6629605758        0.1589355205
 H         -4.5668311598       -5.2950595338       -3.9044730433
 H         -3.4026882130       -4.9172520330       -2.6307123297
 H         -5.0461920883       -4.2881110350       -2.5406775732
 H         -4.6519476963       -1.8161113570       -5.3401458511
 H         -5.7866819241       -2.4450620205       -4.1477638002
 H         -5.3132373583       -3.4442053481       -5.5196713974
 H         -2.3636365644       -2.8787711436       -5.6063502186
 H         -3.1032399354       -4.4740648226       -5.6607930295
 H         -1.8400083688       -4.1453220208       -4.4804345719
 H         -1.2976995341       -2.0434209029       -3.8083225113
 H         -0.5310522118       -0.3744830957       -2.2349936534
 H         -5.1775471191       -2.1017006631       -1.9934077455
 H         -6.3789877093       -0.8578734253        0.0280954959
 H         -7.0069692462        1.1998256366        4.1445919644
 H         -8.6915156632        1.3457505757        3.6582595719
 H         -7.5074037908        2.4875622861        3.0325428273
 H         -7.6064877906       -1.6329481180        1.7705110764
 H         -8.6950314683       -1.0092288090        3.0078693612
 H         -6.9757583115       -1.2096556773        3.3605612785
 H         -8.2380842121        1.9021512496        0.6690348857
 H         -9.4467244171        0.8442279576        1.4038247657
 H         -8.3565476740        0.2159157465        0.1710032503
 H         -5.2776926770        2.0420940492        2.9825726389
 H         -3.0307716650        2.1654664542        2.0967653105
 H         -2.0505477835        3.2212761470        0.2399756915
 H         -1.2085325628        4.8548867837       -1.6297672554
 H         -3.9997239685        7.7173149525       -0.7654039822
 H         -1.3673448429        6.7583701821        2.2224439029
 H          2.1692096028        3.2778580766        0.9486823054
 H          0.9281500754       -1.0123640167        2.1357585289
 H          1.8210055168       -3.0302311386        3.1424263935
 H          6.0446163648       -5.3427438588        3.2306779956
 H          5.9345872551       -4.5299030876        1.6733072477
 H          6.4068153846       -3.6242432392        3.1233752520
 H          3.0778824458       -3.8421408678        4.8267801252
 H          4.6872267906       -3.1303538944        4.9235954492
 H          4.4837183416       -4.8807427003        5.0470701191
 H          3.7920032297       -6.2183707205        2.9643509559
 H          2.3981307713       -5.1628492199        2.7487984123
 H          3.5502925112       -5.3735095072        1.4319867969
 H          5.6863781746       -2.2691393367        1.4588891006
 H          6.7914660887       -0.3973095482       -0.0578430693
 H          8.0898857708       -0.5118797204       -1.9045133920
 H          9.1206079397        0.5344184984       -2.8777888681
 H          7.4208604502        0.3179228240       -3.3078433311
 H          8.9418454672        2.9647015706       -2.7873254261
 H          7.2737013923        2.8533737566       -3.3360583773
 H          7.6746008442        3.7780000209       -1.8767073408
 H          8.4395711577        2.5649581951        0.2177610718
 H          8.6805209572        0.8196266141        0.1945527654
 H          9.7271507441        1.8620018094       -0.7661587195
 H          5.4889047154        3.1935951368       -1.9980743540
 H          3.2409853808        2.8944220594       -1.1524136001
 H          0.1973579491       -0.4013762088       -0.0113166284
