126

C    -10.861016    1.704759    0.266446
C    -10.008294    0.436004    0.003429
C    -10.940509   -0.775585   -0.262088
C     -9.165260    0.676664   -1.256597
C     -9.806747    0.962555   -2.488818
C     -9.087252    1.177699   -3.661627
C     -7.706328    1.108534   -3.633047
C     -7.055191    0.828159   -2.430885
C     -7.760270    0.613481   -1.222019
N     -7.060523    0.331953    0.004271
C     -5.627969    0.265575    0.001025
C     -4.862869    1.428698    0.141747
C     -3.464774    1.359268    0.135585
C     -2.786566    0.131607   -0.006407
C     -1.309304    0.061719   -0.009458
N     -0.633558    1.210803   -0.032716
C      0.694490    1.095928   -0.031910
C      1.494127    2.339579   -0.043066
C      2.894423    2.313071    0.114957
C      3.654414    3.487926    0.120178
C      3.032708    4.731619   -0.038054
N      3.806694    5.938585   -0.018207
C      3.972222    6.652697    1.220879
C      3.391980    6.174754    2.420956
C      3.531974    6.847713    3.635552
C      4.260325    8.021913    3.684816
C      4.846503    8.512102    2.520177
C      4.718620    7.843454    1.276191
C      5.393568    8.424019    0.025804
C      6.918150    8.514924    0.295221
C      4.818430    9.842135   -0.221004
C      5.178951    7.593947   -1.248061
C      5.757774    8.018822   -2.470780
C      5.584187    7.305609   -3.654871
C      4.824299    6.149787   -3.647315
C      4.245829    5.714056   -2.454038
C      4.410488    6.415453   -1.235087
C      1.644145    4.781606   -0.205823
C      0.889784    3.602578   -0.205282
N      1.351542   -0.063487   -0.012916
C      0.588035   -1.155915    0.008775
C      1.267496   -2.468539    0.025895
C      0.553306   -3.664577    0.242500
C      1.193761   -4.909167    0.251278
C      2.574667   -4.994238    0.038458
N      3.232634   -6.268089    0.023041
C      3.804395   -6.787641    1.237802
C      3.701482   -6.072499    2.455642
C      4.251984   -6.548931    3.646756
C      4.922597   -7.758716    3.653240
C      5.035671   -8.484756    2.469347
C      4.482642   -8.020337    1.248971
C      4.636718   -8.861111   -0.026863
C      6.151499   -9.036810   -0.310573
C      3.986206  -10.246202    0.222675
C      3.985403   -8.241123   -1.271042
C      4.049321   -8.922546   -2.512802
C      3.480072   -8.399716   -3.671355
C      2.833615   -7.178086   -3.618201
C      2.759900   -6.490151   -2.406717
C      3.326200   -6.999980   -1.213008
C      3.304059   -3.818787   -0.173530
C      2.658205   -2.577664   -0.177415
N     -0.744881   -1.145868    0.012920
C     -3.577461   -1.026927   -0.144483
C     -4.975615   -0.964276   -0.143103
C     -7.777848    0.107205    1.232066
C     -7.089451   -0.151312    2.442479
C     -7.759418   -0.381763    3.644946
C     -9.142098   -0.357708    3.670705
C     -9.844314   -0.096566    2.496724
C     -9.183968    0.142364    1.264960
H    -11.515295    1.950140   -0.577662
H    -11.517860    1.594352    1.136234
H    -10.221651    2.578216    0.447758
H    -11.602377   -0.987689    0.584760
H    -11.595519   -0.615966   -1.126209
H    -10.357666   -1.684961   -0.457376
H    -10.891518    1.020001   -2.547760
H     -9.606914    1.394674   -4.591124
H     -7.129424    1.270243   -4.539517
H     -5.969942    0.778679   -2.460097
H     -5.358741    2.389635    0.255874
H     -2.902414    2.284884    0.248439
H      3.412134    1.363770    0.245004
H      4.732586    3.435485    0.252223
H      2.812516    5.255355    2.432547
H      3.070231    6.448364    4.534308
H      4.376047    8.556664    4.623443
H      5.415343    9.436143    2.595157
H      7.151951    9.127789    1.172612
H      7.346510    7.519914    0.468187
H      7.464156    8.964288   -0.541326
H      5.294274   10.341764   -1.072210
H      3.741151    9.798847   -0.428453
H      4.957890   10.507085    0.639087
H      6.356715    8.925797   -2.514154
H      6.040577    7.655932   -4.576855
H      4.676651    5.582997   -4.562606
H      3.653934    4.803513   -2.497857
H      1.149661    5.742129   -0.331731
H     -0.188924    3.680260   -0.334269
H     -0.522889   -3.636626    0.409198
H      0.616244   -5.815720    0.418084
H      3.182797   -5.118302    2.499212
H      4.154879   -5.969398    4.560927
H      5.357643   -8.140457    4.573253
H      5.570041   -9.431303    2.509480
H      6.341551   -9.656735   -1.193745
H      6.634155   -8.067334   -0.483262
H      6.677677   -9.520394    0.518913
H      2.912948  -10.145749    0.428026
H      4.093006  -10.919485   -0.635227
H      4.433181  -10.769686    1.074755
H      4.553981   -9.883039   -2.590951
H      3.544869   -8.946345   -4.607970
H      2.384844   -6.754283   -4.512144
H      2.242972   -5.533900   -2.415484
H      4.377157   -3.872025   -0.341852
H      3.257693   -1.684966   -0.351566
H     -3.104974   -2.001388   -0.259138
H     -5.559542   -1.874836   -0.253677
H     -6.003245   -0.178554    2.472631
H     -7.196010   -0.579427    4.552934
H     -9.676393   -0.538136    4.599635
H    -10.930674   -0.080464    2.554296
