  53
 
 O          4.3787011989       -2.0141116573        0.9255805719
 C          4.8466116829       -1.0045667221        0.3991706826
 C          6.3028597266       -0.8127440431        0.3224594339
 C          7.1122211612       -1.8088923070        0.8890008651
 C          8.4838913446       -1.7244743130        0.8669132346
 C          9.0962001819       -0.6270324289        0.2670336044
 C          8.3275544630        0.3660322252       -0.2967185841
 C          6.9335823778        0.2829801079       -0.2728984428
 S          6.0739069077        1.6088222178       -1.0183785477
 C          4.3922017407        1.1933444023       -0.7913719937
 C          3.4583120992        2.1062593391       -1.2856091571
 C          2.1106160150        1.8704105447       -1.1564260955
 C          1.6443386563        0.7062621149       -0.5308286890
 C          0.2041633773        0.4488491056       -0.3936660231
 C         -0.2990715619       -0.8435858282       -0.6030191047
 C         -1.6424084098       -1.1331586462       -0.4859759537
 C         -2.5040246667       -0.1041783105       -0.1284242735
 C         -2.0178792849        1.2099900290        0.0696165452
 C         -0.6654743021        1.4820181958       -0.0664896302
 C         -3.1593128030        2.0222740357        0.3873767060
 C         -3.3202037493        3.3668651136        0.6972627109
 C         -4.5882076251        3.8327346947        0.9826752664
 C         -5.6860074631        2.9740085661        0.9736673592
 C         -5.5512261878        1.6331494881        0.6675551439
 C         -4.2823795076        1.1632187580        0.3580962838
 N         -3.8706542766       -0.1173882509        0.0443790415
 C         -4.7039872551       -1.2430750568       -0.0713242765
 C         -4.4070790416       -2.4076636414        0.6303176232
 C         -5.2282071291       -3.5141143608        0.5091365542
 C         -6.3509616197       -3.4658613944       -0.3009698426
 C         -6.6501280815       -2.3052486231       -0.9957062904
 C         -5.8291588972       -1.1972535540       -0.8890910491
 C          2.5793843114       -0.1917603636       -0.0476877354
 C          3.9579688350        0.0245055866       -0.1608450275
 H          6.6085259089       -2.6485832863        1.3458829343
 H          9.0820778388       -2.5049767251        1.3112745400
 H         10.1726420006       -0.5518646778        0.2435431435
 H          8.7871394447        1.2234708782       -0.7648632329
 H          3.8160383443        2.9999832560       -1.7746585369
 H          1.4034330827        2.5797984200       -1.5585920128
 H          0.3855960504       -1.6287387356       -0.8883484390
 H         -2.0094953790       -2.1303619528       -0.6758909271
 H         -0.2924436879        2.4804356973        0.1044709975
 H         -2.4676622819        4.0291612637        0.7196524752
 H         -4.7354059791        4.8749628587        1.2254091605
 H         -6.6637075912        3.3648605178        1.2156464641
 H         -6.4052145890        0.9728752017        0.6789078860
 H         -3.5416851888       -2.4351374617        1.2758600544
 H         -4.9930876249       -4.4153347293        1.0560730192
 H         -6.9916449088       -4.3303528370       -0.3897527558
 H         -7.5225581201       -2.2641525684       -1.6311620874
 H         -6.0471120900       -0.2973559610       -1.4449952192
 H          2.2684225530       -1.0953051821        0.4567326262
