  140
 
 F          3.1345667725       -2.3289265365       -2.3045403512
 C          2.6726646664       -3.0234419658       -1.2469366081
 C          2.5816488353       -4.3950614068       -1.3316190398
 C          2.0985679367       -5.1143818073       -0.2459531224
 C          1.7277947360       -4.4517991266        0.9171024386
 C          1.8424294717       -3.0803184237        0.9797118669
 F          1.4923412827       -2.4446065345        2.1157649813
 C          2.3029036907       -2.3135582552       -0.0980518173
 N          2.3842740542       -0.9013667147       -0.0557275027
 C          1.2154495964       -0.1659987202       -0.0602726445
 C         -0.0003159405       -0.8371108394        0.0011959097
 C         -1.2155645932       -0.1649762034        0.0611701452
 C         -1.2303167762        1.2553727935        0.1681697964
 C          0.0006511701        1.8925182864       -0.0022944400
 C          1.2311914612        1.2540626322       -0.1709576344
 B          2.5806841110        1.9458150990       -0.4389009941
 C          2.9055788192        3.4052876027       -0.8158964061
 C          1.9672221145        4.3648769017       -1.2223034702
 C          2.3019425011        5.6805919187       -1.4581463599
 C          3.6163196511        6.0959894990       -1.2865517729
 C          4.5856646385        5.1772765206       -0.9433173317
 C          4.2578256752        3.8304521285       -0.7462254179
 N          5.2773629766        2.9315550338       -0.4792478231
 C          6.6136107701        3.4120665332       -0.3593599155
 C          7.1797228864        3.5381161605        0.9031569014
 C          8.4912704195        3.9576623997        1.0310930671
 C          9.2391679338        4.2545637175       -0.0959827271
 C          8.6727749340        4.1344478469       -1.3543701898
 C          7.3627708717        3.7113541190       -1.4906297806
 C          5.0979124963        1.5728527523       -0.3283154395
 C          6.2107784277        0.7378786030       -0.2418716587
 C          6.0453353938       -0.6231511147        0.0055892635
 N          7.1611915819       -1.4529684593        0.1460533773
 C          7.1048439759       -2.7731883623       -0.3132539106
 C          6.3986962012       -3.0913998934       -1.4742477071
 C          6.3214362163       -4.4009179817       -1.9041212431
 C          6.9518307023       -5.4118186883       -1.1966590848
 C          7.6657246850       -5.0995409833       -0.0511820863
 C          7.7416752022       -3.7939227157        0.3929475826
 C          8.3352823140       -0.9512868266        0.7152186745
 C          8.2774863054       -0.0466958504        1.7768339175
 C          9.4381289548        0.4708508554        2.3152088825
 C         10.6739965523        0.0905615005        1.8175301034
 C         10.7382898210       -0.8176975530        0.7733664097
 C          9.5825427146       -1.3338286664        0.2210478690
 C          4.7636164973       -1.1551908760        0.1171100637
 C          3.6506521173       -0.3411795345       -0.0817985204
 C          3.7900352339        1.0472179837       -0.2817345493
 B         -2.5792769950        1.9487594439        0.4346237669
 C         -2.9030796263        3.4094686895        0.8077645873
 C         -1.9639392670        4.3695922026        1.2111117988
 C         -2.2977109750        5.6861863416        1.4433589268
 C         -3.6118603877        6.1019826106        1.2710221517
 C         -4.5819486753        5.1829237489        0.9307905081
 C         -4.2550635077        3.8353320173        0.7374928571
 N         -5.2753251673        2.9363216373        0.4736262056
 C         -6.6113689736        3.4172593531        0.3534040664
 C         -7.1785809161        3.5395523307       -0.9089889221
 C         -8.4900127494        3.9594112711       -1.0370617690
 C         -9.2366969339        4.2603742037        0.0897430609
 C         -8.6691944311        4.1440273001        1.3479850399
 C         -7.3593041958        3.7206351817        1.4843959276
 C         -5.0967909011        1.5770875027        0.3263921835
 C         -6.2102243503        0.7425816136        0.2431233524
 C         -6.0458190008       -0.6192404109       -0.0006521079
 N         -7.1623358754       -1.4487035209       -0.1378674861
 C         -7.1066466090       -2.7676340383        0.3251814209
 C         -6.3994688273       -3.0831708143        1.4862748918
 C         -6.3229338978       -4.3915238645        1.9198135423
 C         -6.9551020304       -5.4038569701        1.2159956647
 C         -7.6700398409       -5.0941956607        0.0704607195
 C         -7.7452631195       -3.7897905876       -0.3773418155
 C         -8.3366091905       -0.9476546591       -0.7072521324
 C         -9.5836724723       -1.3274652391       -0.2105049278
 C        -10.7395345155       -0.8118468589       -0.7630676581
 C        -10.6755216640        0.0931737661       -1.8100553212
 C         -9.4398481442        0.4707052981       -2.3103074629
 C         -8.2791092523       -0.0463587821       -1.7716739751
 C         -4.7645091166       -1.1523761908       -0.1117014197
 C         -3.6509144368       -0.3385117648        0.0841924108
 C         -3.7892703598        1.0505223961        0.2804309804
 N         -2.3849074388       -0.8995737763        0.0588474097
 C         -2.3043798260       -2.3117171073        0.1045770433
 C         -2.6736591957       -3.0185645976        1.2554661363
 F         -3.1343964046       -2.3212124432        2.3117131297
 C         -2.5833107105       -4.3900391404        1.3434221862
 C         -2.1014465512       -5.1122426996        0.2591452135
 C         -1.7312046740       -4.4527216893       -0.9058064697
 C         -1.8451324369       -3.0813188502       -0.9716631350
 F         -1.4955002001       -2.4485316838       -2.1094907630
 H          2.8780481758       -4.8871584777       -2.2432642718
 H          2.0148596917       -6.1866831650       -0.3040109083
 H          1.3564191908       -4.9877417774        1.7753120243
 H         -0.0006901742       -1.9138352586        0.0024845140
 H          0.0010344375        2.9676320740       -0.0037276791
 H          0.9454596634        4.0552442753       -1.3722505437
 H          1.5454007723        6.3890343787       -1.7628934961
 H          3.8882497655        7.1306760960       -1.4349472567
 H          5.6075937407        5.5078661387       -0.8330092952
 H          6.5871165826        3.2996428039        1.7737864790
 H          8.9307014279        4.0523456184        2.0125155260
 H         10.2637654899        4.5787024830        0.0058132062
 H          9.2546938539        4.3650645198       -2.2341738763
 H          6.9129641506        3.6067077592       -2.4668875716
 H          7.2097433091        1.1276252697       -0.3542387312
 H          5.9142658358       -2.3063642063       -2.0352852976
 H          5.7735415754       -4.6305676272       -2.8060038374
 H          6.8905070487       -6.4344505042       -1.5368594139
 H          8.1602464544       -5.8806808644        0.5074733101
 H          8.2885299566       -3.5545275744        1.2933068802
 H          7.3159563162        0.2420991866        2.1745621105
 H          9.3777362660        1.1692425708        3.1369311415
 H         11.5797904923        0.4965569803        2.2415183000
 H         11.6970799440       -1.1196605042        0.3779831385
 H          9.6356159135       -2.0310432798       -0.6023336824
 H          4.6527688938       -2.2022855125        0.3553384884
 H         -0.9423192358        4.0597274226        1.3615285132
 H         -1.5405904988        6.3949850285        1.7458255278
 H         -3.8830442431        7.1372731998        1.4165268933
 H         -5.6036907818        5.5138882092        0.8198831743
 H         -6.5869270564        3.2979115633       -1.7793926217
 H         -8.9303102739        4.0511491484       -2.0183736074
 H        -10.2612136047        4.5847350996       -0.0121485282
 H         -9.2501611548        4.3778197250        2.2275785450
 H         -6.9086454117        3.6189025729        2.4605686301
 H         -7.2088602865        1.1332401380        0.3551965220
 H         -5.9136849096       -2.2969907621        2.0445298915
 H         -5.7742144095       -4.6190900200        2.8217224495
 H         -6.8943535561       -6.4255630542        1.5590682456
 H         -8.1659622759       -5.8764658119       -0.4853639785
 H         -8.2929428532       -3.5524716874       -1.2777489160
 H         -9.6364931907       -2.0221244308        0.6150495029
 H        -11.6981736145       -1.1116268459       -0.3656645238
 H        -11.5813929311        0.4987991458       -2.2342314273
 H         -9.3797013269        1.1665246001       -3.1342259640
 H         -7.3177365296        0.2402757668       -2.1713419839
 H         -4.6544966520       -2.2001899638       -0.3471104385
 H         -2.8792882173       -4.8797508103        2.2564926135
 H         -2.0182796922       -6.1844583660        0.3197484722
 H         -1.3607743418       -4.9909535464       -1.7629960026
