  68
 
 C          1.9852468886        4.0664183330        2.5353064848
 C          1.1661388779        3.3298851562        1.6837249675
 C          1.6436643884        2.2239983185        1.0100016340
 C          2.9661779168        1.8421560339        1.2046164480
 C          3.7932125692        2.6295697864        2.0333635110
 C          3.3161225540        3.7347026689        2.7145495684
 O          5.0743210829        2.1769639831        2.0363058471
 C          5.1056066763        1.1017845273        1.2048652586
 C          6.2575644114        0.4020639226        0.8675013570
 C          6.1496129216       -0.6278412111       -0.0456173964
 C          4.9009346969       -0.9713348290       -0.5548179264
 C          4.4955966103       -1.9845162433       -1.4916897832
 C          5.1850349505       -2.9308672804       -2.2362377662
 C          4.4648507779       -3.7743857818       -3.0616026431
 C          3.0782422422       -3.6841621726       -3.1497091416
 C          2.3700581673       -2.7511562926       -2.4143563296
 C          3.0910411315       -1.8999049915       -1.5936477484
 N          2.6309703136       -0.8800788967       -0.7709454670
 C          1.2994207767       -0.7833535439       -0.3848006792
 C          0.9407009619       -0.8248496327        0.9429824960
 N         -0.3369512982       -0.7624292530        1.3425173718
 C         -1.2989260351       -0.7844626791        0.3841170132
 N         -2.6304351768       -0.8823246937        0.7701661915
 C         -3.0899262933       -1.9031843901        1.5919146704
 C         -2.3684597206       -2.7548042765        2.4118132569
 C         -3.0761141173       -3.6889002553        3.1462844402
 C         -4.4626751415       -3.7798150845        3.0581052113
 C         -5.1833371804       -2.9359244381        2.2335497478
 C         -4.4944321019       -1.9884785489        1.4898835455
 C         -4.9003428756       -0.9746560191        0.5539639419
 C         -6.1492220444       -0.6313910779        0.0450791742
 C         -6.2577504434        0.3992734805       -0.8670998680
 C         -5.1061813815        1.0999454342       -1.2038449665
 O         -5.0754971881        2.1758636656       -2.0343382195
 C         -3.7946388075        2.6291792761       -2.0310047215
 C         -3.3181572112        3.7351575261       -2.7112469343
 C         -1.9874631343        4.0674458000       -2.5317270564
 C         -1.1679519047        3.3306401519       -1.6807719362
 C         -1.6448667291        2.2239158050       -1.0079910338
 C         -2.9671672906        1.8415066033       -1.2029446164
 C         -3.8245881485        0.8090102527       -0.6858944936
 C         -3.7198605080       -0.2995948136        0.1582250669
 C         -0.9401896059       -0.8245200575       -0.9436970559
 N          0.3374254664       -0.7609868725       -1.3431594968
 C          3.7200634400       -0.2973066040       -0.1584655069
 C          3.8241720292        0.8105956005        0.6866603023
 H          1.5794455735        4.9234794235        3.0509351824
 H          0.1397827152        3.6341085601        1.5417513585
 H          1.0136695203        1.6780241388        0.3295405657
 H          3.9680279457        4.3145947312        3.3477683708
 H          7.2043275567        0.6847724450        1.2970286201
 H          7.0262380655       -1.1705986503       -0.3619900544
 H          6.2601434008       -3.0017899949       -2.1727313441
 H          4.9833983499       -4.5172846780       -3.6491219053
 H          2.5447670878       -4.3579233228       -3.8032464007
 H          1.2959611677       -2.6772502862       -2.4812900401
 H          1.6921229206       -0.8896246134        1.7131876694
 H         -1.2944046452       -2.6803499619        2.4788135327
 H         -2.5422583932       -4.3629708965        3.7991942754
 H         -4.9808018112       -4.5235557940        3.6449312156
 H         -6.2584047283       -3.0073842681        2.1699796753
 H         -7.0255368250       -1.1749323475        0.3609629689
 H         -7.2046702201        0.6818415535       -1.2963736707
 H         -3.9703831551        4.3152298087       -3.3439716884
 H         -1.5821332681        4.9251700723       -3.0466256980
 H         -0.1417668845        3.6353143951       -1.5385259635
 H         -1.0145794616        1.6777191736       -0.3279814204
 H         -1.6915626898       -0.8890293246       -1.7139704072
