  60
 
 C         -0.0143175374       -2.3410308614       -1.8849631854
 C         -0.5275035870       -1.2037364493       -1.0543583467
 C         -1.8925713430       -1.0697233607       -0.8766825402
 C         -2.4378141241       -0.0627888646       -0.0865362243
 N         -3.8364433453        0.0231402437        0.0364302002
 C         -4.6513920990       -0.9555169986        0.5578016300
 C         -4.3086205338       -2.1933856668        1.0846842221
 C         -5.3294673880       -2.9882433288        1.5707523227
 C         -6.6558555996       -2.5635582454        1.5426064493
 C         -7.0001955415       -1.3242272004        1.0324189222
 C         -5.9945171267       -0.5092884118        0.5358315509
 C         -5.9741222409        0.8052006244       -0.0494253997
 C         -6.9561707148        1.7337885078       -0.3581495945
 C         -6.5788765714        2.9186682670       -0.9649751565
 C         -5.2465594238        3.1731708922       -1.2821173427
 C         -4.2495974688        2.2633004199       -0.9854614006
 C         -4.6191450311        1.0871668221       -0.3465764886
 C         -1.5995288620        0.8212398492        0.6030779018
 C         -2.1467374622        1.8555557635        1.5395289110
 C         -0.2364954020        0.6829985675        0.4214179684
 C          0.3270442987       -0.2886861774       -0.4119295236
 C          1.7791640830       -0.3203325481       -0.5552166307
 C          2.5986534456       -0.2054176199        0.5792326266
 C          3.9662162580       -0.2176008239        0.4819890990
 C          4.5952020168       -0.2923202707       -0.7768358653
 C          6.0219733482       -0.3111949724       -0.9634897710
 O          6.5342892206       -0.7546119211       -2.0307237140
 C          6.9073817066        0.1645976369        0.1083992760
 C          8.1754687093       -0.4139050720        0.2393580637
 C          9.0389708777        0.0283240664        1.2193396041
 C          8.6710290532        1.0628028505        2.0666263737
 C          7.4324921162        1.6677995239        1.9116397676
 C          6.5556514300        1.2333610383        0.9377469699
 C          3.7727346809       -0.4485241616       -1.9169926646
 C          2.4090693392       -0.4476877621       -1.8028478654
 H          0.9870483731       -2.6298062947       -1.5761230707
 H         -0.6762236425       -3.2000652048       -1.7919848087
 H          0.0200476798       -2.0649403969       -2.9389828642
 H         -2.5650317034       -1.7575665258       -1.3705933455
 H         -3.2796435441       -2.5182623242        1.1157880031
 H         -5.0940769714       -3.9578291643        1.9833083333
 H         -7.4254181668       -3.2134697864        1.9311657630
 H         -8.0283158007       -0.9957074751        1.0218922750
 H         -7.9925964842        1.5315395157       -0.1345993176
 H         -7.3288610735        3.6554447736       -1.2104218141
 H         -4.9888074529        4.0983061017       -1.7756524297
 H         -3.2213998537        2.4495382912       -1.2562146468
 H         -2.4167014101        2.7660738332        1.0047326534
 H         -1.4019337830        2.1141001053        2.2883690296
 H         -3.0397489332        1.4902040392        2.0438160235
 H          0.4259577755        1.3664261136        0.9330958709
 H          2.1384485873       -0.1620777462        1.5565600271
 H          4.5614502265       -0.2049645926        1.3825739406
 H          8.4558887991       -1.2166275034       -0.4250559369
 H         10.0088265690       -0.4367069440        1.3221425036
 H          9.3503163063        1.4079136048        2.8317179727
 H          7.1515382588        2.4957706268        2.5468087573
 H          5.6151371100        1.7442197696        0.7953853244
 H          4.2509086470       -0.5301082495       -2.8811851098
 H          1.8069808746       -0.4978102596       -2.6975323329
