  80
 
 C          1.2113780243        4.7605788970       -0.3057760330
 C          0.5576964392        3.5510424284        0.2921276707
 C         -0.7987864296        3.5050747848        0.3595242838
 C         -1.5472377809        2.3446633759        0.7231539066
 C         -2.9685287954        2.3855897985        0.6413053877
 C         -3.6704506831        3.5910835567        0.9215698670
 C         -5.0383331000        3.6596291722        0.8372052034
 C         -5.7863600652        2.5551787961        0.4432068137
 C         -5.1151917863        1.3651759518        0.1267076341
 N         -5.8586227743        0.2566501427       -0.3185341148
 C         -6.7761510670        0.2733846239       -1.3509729695
 C         -7.1431941996        1.3179597847       -2.1876122815
 C         -8.0838743744        1.0578929891       -3.1657144441
 C         -8.6422106208       -0.2092323132       -3.3208770985
 C         -8.2631496459       -1.2586249956       -2.5067908119
 C         -7.3205026189       -1.0206824271       -1.5160882310
 C         -6.6930622440       -1.8526062971       -0.5266935223
 C         -6.8197117399       -3.1882775796       -0.1903771117
 C         -6.0527677167       -3.6790730427        0.8640817517
 C         -6.1534642831       -5.0388748083        1.2283534858
 N         -6.2337440617       -6.1445107937        1.5243592568
 C         -5.1852680378       -2.8395936876        1.5826765906
 C         -5.0526538113       -1.5085345696        1.2556394892
 C         -5.7952501990       -1.0174354100        0.1873243702
 C         -3.7452536220        1.2762637100        0.2335369266
 C         -0.7766164770        1.1779302232        1.1043003900
 C         -1.4319334761       -0.0319755066        1.6990007764
 C          0.5796556293        1.2246055803        1.0409805646
 C          1.3288918818        2.3885347515        0.6870190395
 C          2.7466599318        2.3600299061        0.7967418929
 C          3.5199870622        3.4891233780        1.1829668952
 C          4.8870742322        3.4188358508        1.2823486479
 C          5.5673802967        2.2358390330        1.0108000954
 C          4.8264631249        1.1034464209        0.6391926826
 N          5.4952260613       -0.1037563016        0.3733250775
 C          5.1882271693       -1.3315776897        0.9273277638
 C          4.2239097238       -1.6584097855        1.8700367095
 C          4.1438306920       -2.9758974367        2.2788418927
 C          5.0028252247       -3.9487288920        1.7720681578
 C          5.9800246511       -3.6252697004        0.8510123193
 C          6.0791572704       -2.3076743953        0.4259073232
 C          6.9610476207       -1.6237056358       -0.4798275942
 C          8.0155182254       -2.0378198334       -1.2730128555
 C          8.6572860360       -1.0880914757       -2.0653331207
 C          9.7401339408       -1.4775000813       -2.8826725540
 N         10.6212977018       -1.7936915507       -3.5458679102
 C          8.2389936799        0.2529520107       -2.0747526813
 C          7.1890530742        0.6752825394       -1.2897525842
 C          6.5602646149       -0.2627037965       -0.4774773582
 C          3.4553223575        1.1590586400        0.5448114535
 H          2.1503267736        4.5030338230       -0.7889163777
 H          0.5506112640        5.2120624059       -1.0438035956
 H          1.4086723417        5.5159786069        0.4562064976
 H         -1.3556301778        4.3622439936        0.0090877803
 H         -3.1164599812        4.4509860266        1.2642235020
 H         -5.5464166697        4.5801663285        1.0850344092
 H         -6.8625655347        2.5990292806        0.3927628657
 H         -6.7019145786        2.2976067321       -2.0847298845
 H         -8.3899728113        1.8538500439       -3.8280390593
 H         -9.3754436215       -0.3709753139       -4.0964899777
 H         -8.6850360811       -2.2435579365       -2.6366607298
 H         -7.4961410607       -3.8387396254       -0.7238812263
 H         -4.6210766296       -3.2541970060        2.4048545575
 H         -4.4000708578       -0.8635722568        1.8222877196
 H         -3.2571323125        0.3692661412       -0.0826680293
 H         -1.6928247402       -0.7612586721        0.9309004853
 H         -2.3349263060        0.2458026909        2.2375045171
 H         -0.7504442516       -0.5221679728        2.3919129784
 H          1.1331660784        0.3640408503        1.3879923500
 H          3.0171861835        4.3968101919        1.4702943556
 H          5.4466525897        4.2879192769        1.5961978969
 H          6.6378197663        2.1702312773        1.1227086725
 H          3.5676416229       -0.9063114360        2.2809166077
 H          3.4007480249       -3.2576738914        3.0099128127
 H          4.9054402722       -4.9679272091        2.1141181430
 H          6.6560257459       -4.3759556307        0.4711311051
 H          8.3366499996       -3.0683445377       -1.2859788116
 H          8.7528622349        0.9541150992       -2.7153513141
 H          6.8589965962        1.7025291660       -1.3134916156
 H          2.9202523324        0.2866383356        0.2025417239
