  98
 
 C        -10.2221435722        0.9123760598        1.0703971230
 O         -9.0067498118        1.1341189519        1.7501127547
 C         -7.8368250827        0.8133685713        1.1153484871
 C         -6.6658858338        1.0495428482        1.8374157297
 C         -5.4340580063        0.7546025765        1.2979082271
 C         -5.3300827124        0.2246881246        0.0092642304
 N         -4.0794817575       -0.0664892103       -0.5447751747
 C         -3.9152901291       -1.1831314194       -1.3719339386
 C         -3.0616192928       -1.1322445659       -2.4767030193
 C         -2.8979424877       -2.2324599712       -3.2877763196
 C         -3.5882288015       -3.4181562977       -3.0305596001
 O         -3.3575247711       -4.4466909749       -3.9041749040
 C         -4.0217683881       -5.6719568031       -3.6899213199
 C         -4.4421733998       -3.4745031378       -1.9354292907
 C         -4.5950215918       -2.3706514575       -1.1152509437
 C         -2.9802200920        0.7623684222       -0.2680890467
 C         -3.1554219672        2.1542523751       -0.2195487696
 C         -2.1066747581        3.0078179061        0.0495240351
 C         -0.8521049090        2.4547705187        0.2662887594
 C         -0.6546550882        1.0561043512        0.1989955099
 C         -1.7229589154        0.2095685773       -0.0567609336
 C          0.7432146157        0.8321105124        0.4411370978
 C          1.5239611917       -0.3122610480        0.5110985726
 C          2.8777354817       -0.1833877645        0.7962268471
 N          3.6948239377       -1.3221970068        0.8864598316
 C          4.9905944683       -1.2902859480        0.3603596707
 C          6.0411687735       -1.9532606473        0.9997276438
 C          7.3140203431       -1.9181407813        0.4765066733
 C          7.5854358511       -1.2095898723       -0.6953209369
 O          8.8856160919       -1.2362370585       -1.1229678383
 C          9.2195973189       -0.5352009817       -2.3000976323
 C          6.5468187590       -0.5404923565       -1.3317597075
 C          5.2662099340       -0.5886694548       -0.8103001550
 C          3.2068301274       -2.4833751729        1.4950114296
 C          2.3590278178       -2.4066636817        2.6029528314
 C          1.8783611345       -3.5509586570        3.1985643183
 C          2.2360566536       -4.8114300830        2.7170366975
 O          1.7081340872       -5.8809469217        3.3894581483
 C          2.0333981010       -7.1797521138        2.9470830471
 C          3.0815779515       -4.8952119484        1.6172228858
 C          3.5520076926       -3.7429954303        1.0126029828
 C          3.4350147127        1.0874869924        1.0084597158
 C          2.6762395857        2.2354126248        0.9265092244
 C          1.3254543248        2.1067947631        0.6314651226
 N          0.3529290847        3.0784424927        0.5128527254
 C          0.5308634066        4.4609516618        0.7057683768
 C         -0.1565170980        5.0944639450        1.7130922771
 C          0.0094714101        6.4669413156        1.9375700794
 C          0.8692175645        7.1934086384        1.1619353896
 C          1.5803120128        6.5816844227        0.1080466675
 C          2.4555769249        7.3177374902       -0.7193038139
 C          3.1081854495        6.7184912935       -1.7597531291
 C          2.9063620913        5.3556788835       -2.0269576945
 C          2.0745621802        4.6102161659       -1.2384566535
 C          1.4038365517        5.1943296605       -0.1429084438
 C         -6.5009767864       -0.0010274596       -0.7096490408
 C         -7.7410361320        0.2815351553       -0.1652585284
 H        -10.3590746458       -0.1470517298        0.8316902023
 H        -10.2814691515        1.5055708968        0.1524366935
 H        -11.0035604028        1.2319024624        1.7582185118
 H         -6.7502115807        1.4587805278        2.8323547827
 H         -4.5380298340        0.9334607278        1.8731960872
 H         -2.5260598817       -0.2201480047       -2.6935888596
 H         -2.2399951880       -2.1960932338       -4.1423131735
 H         -3.6901847279       -6.3275588796       -4.4937256033
 H         -5.1084721441       -5.5525721204       -3.7435974160
 H         -3.7483366746       -6.1118359274       -2.7256652434
 H         -4.9891101715       -4.3739091963       -1.7008266236
 H         -5.2541201713       -2.4317774657       -0.2617216455
 H         -4.1399486002        2.5586225457       -0.4025856119
 H         -2.2579032083        4.0764045352        0.0758404899
 H         -1.5817957045       -0.8597904962       -0.0994352087
 H          1.0881817626       -1.2875107565        0.3554515760
 H          5.8500683455       -2.4964162608        1.9131864387
 H          8.1277772893       -2.4292299016        0.9675255639
 H         10.2876019359       -0.6941831806       -2.4409042665
 H          8.6767181661       -0.9263357656       -3.1663032521
 H          9.0220272043        0.5363886494       -2.1966254587
 H          6.7161915902        0.0160473947       -2.2398403528
 H          4.4664966967       -0.0718671194       -1.3199773423
 H          2.0793122177       -1.4398493873        2.9938629034
 H          1.2240114971       -3.4950997049        4.0548546139
 H          1.5107080002       -7.8565304747        3.6213066144
 H          3.1103043303       -7.3655253865        3.0088052080
 H          1.6902192455       -7.3509392228        1.9218952653
 H          3.3773555462       -5.8502180824        1.2127568444
 H          4.2003744234       -3.8233402211        0.1524769364
 H          4.4862123752        1.1580202810        1.2455775609
 H          3.1212708750        3.2039993477        1.0969867935
 H         -0.8222829669        4.5216518378        2.3422876250
 H         -0.5398892523        6.9390516313        2.7386144139
 H          1.0115278034        8.2495059368        1.3390364810
 H          2.5946470435        8.3699145981       -0.5156525285
 H          3.7751273344        7.2901263797       -2.3886775693
 H          3.4117935386        4.8976811910       -2.8646719156
 H          1.9179851837        3.5640259054       -1.4546336653
 H         -6.4402648159       -0.4037923877       -1.7100766944
 H         -8.6224575292        0.0895179820       -0.7562864535
