  49
 
 C          5.6396493831        1.3032929465        0.6653222517
 C          5.0847410016       -0.0239495242        0.1409811953
 C          5.4234054774       -1.1471436499        1.1182906800
 C          5.6550327232       -0.3508302339       -1.2419882833
 N          3.6181191372        0.0854391269        0.0316217315
 C          3.0047911107        1.0074204320       -0.7642475455
 O          3.5596054171        1.8305174576       -1.4604191708
 C          1.5312005242        0.8664723998       -0.6651426855
 C          0.5981527112        1.6383956938       -1.3462543953
 C         -0.7462024584        1.3773220961       -1.1624639530
 C         -1.1739327593        0.3620810449       -0.2989133313
 N         -2.5286099296        0.1068716881       -0.1329791995
 C         -3.5190867792        1.0555419151        0.0780085117
 C         -3.4098855801        2.4277674427        0.2439282316
 C         -4.5687649070        3.1432206751        0.4839419890
 C         -5.8077302721        2.5141503219        0.5687848274
 C         -5.9176670592        1.1440524873        0.4355130125
 C         -4.7671507774        0.4056756420        0.1943948426
 C         -4.5162266474       -1.0014339410        0.0370064842
 C         -5.3417314816       -2.1175981112        0.0268434884
 C         -4.7724793204       -3.3578797487       -0.1838964160
 C         -3.4034879148       -3.4885096938       -0.4009094286
 C         -2.5622037200       -2.3908773778       -0.3954609400
 C         -3.1249770649       -1.1467646477       -0.1541372105
 C         -0.2281615527       -0.4055898588        0.3957940369
 C          1.0997567556       -0.1340640668        0.1871745361
 S          2.5357488595       -0.9209749390        0.8838135369
 O          2.6386940484       -0.6792512468        2.2887035508
 O          2.6538400854       -2.2706929702        0.4268709192
 H          5.4161395648        2.1074540764       -0.0299381801
 H          5.1959185775        1.5357867021        1.6308713285
 H          6.7173430157        1.2281844468        0.7814233146
 H          5.0192879216       -2.0939243664        0.7709090005
 H          5.0120665621       -0.9379848865        2.1018641505
 H          6.5041938741       -1.2348264903        1.2002509406
 H          5.2245870260       -1.2791715135       -1.6109905057
 H          5.4279960947        0.4478610924       -1.9424755774
 H          6.7335849348       -0.4640938756       -1.1754687884
 H          0.9358617978        2.4141816004       -2.0155742118
 H         -1.4855719827        1.9427718397       -1.7088109473
 H         -2.4534150512        2.9262587720        0.2058984092
 H         -4.5091060232        4.2134817580        0.6131556397
 H         -6.6899538920        3.1080276251        0.7540400181
 H         -6.8741621128        0.6520282449        0.5230379470
 H         -6.4055037096       -2.0116706696        0.1746749389
 H         -5.3951037323       -4.2396887442       -0.1927839940
 H         -2.9874738656       -4.4680922868       -0.5818360875
 H         -1.5064160145       -2.5071148601       -0.5873018677
 H         -0.5347089955       -1.1721318249        1.0888742061
