78
 xtb: 6.7.1 (edcfbbe)
F           -9.33607114639705       -1.20530975153814       -0.66370508886015
C           -8.15962899036736       -0.60764232555164       -0.33387064257529
C           -6.96835803041063       -1.23488384396123       -0.67191409042377
C           -5.75172282071495       -0.63977815480159       -0.33825429781995
N           -4.58673920257162       -1.24386995017510       -0.61241533998982
C           -3.44332239905722       -0.63932562824843       -0.29254573372334
C           -2.14270058723376       -1.30294083767592       -0.47740533750856
C           -1.37950816767144       -1.58482530840008        0.65610927349363
C           -0.07985798384075       -2.02762719302746        0.53827933583817
C            0.49116983202733       -2.16867409295031       -0.72278284917262
N            1.87452470036243       -2.46265044444602       -0.82894186005877
C            2.38750304905964       -3.65009997183937       -0.32349527677094
C            1.56154604099140       -4.69325151391210        0.08621257704690
C            2.10288160452552       -5.86822849566436        0.57904900398898
C            3.47559144218134       -6.02619615823121        0.66495407693864
C            4.31286301951361       -5.00707871320083        0.23962321057763
C            3.77847186540812       -3.83036412889745       -0.25747685901510
O            4.65875896083451       -2.87899290596956       -0.68379351406292
C            4.14143730797275       -1.70073798730038       -1.16540360051509
C            5.04362141317391       -0.73129508107985       -1.56964494905086
C            4.59109380833348        0.48806657888780       -2.04554160070937
C            3.23115514146247        0.73448317777552       -2.10812417167758
C            2.32329128465204       -0.23150013208834       -1.70994150203773
C            2.75876057149843       -1.46796142428948       -1.24330831950553
C           -0.28920627835365       -1.97288151171042       -1.85798257802455
C           -1.60220580257283       -1.55610274175558       -1.73453114013775
C           -3.44368822174692        0.63614333550215        0.29203932913190
C           -2.14344607539354        1.30055013416113        0.47673350847975
C           -1.60294275976591        1.55406792905307        1.73377826591478
C           -0.29016347177758        1.97159482145591        1.85704729395299
C            0.48995407542273        2.16778979118371        0.72174341941178
N            1.87316119807261        2.46252073663623        0.82772730962913
C            2.38537591565340        3.65030391361016        0.32227580865607
C            1.55874495539927        4.69308385204793       -0.08702713933588
C            2.09931142506404        5.86841815138701       -0.57984998734310
C            3.47191223376167        6.02711600999917       -0.66613328835608
C            4.30984839670070        5.00837388582013       -0.24121081484083
C            3.77623007918069        3.83129609858230        0.25586444335862
O            4.65710717253224        2.88028538292934        0.68157748253522
C            4.14055225356282        1.70177696203637        1.16349051043894
C            5.04334919712937        0.73278244262162        1.56744531112801
C            4.59158991106213       -0.48681341130927        2.04346344887270
C            3.23179829001624       -0.73391648022499        2.10647326187238
C            2.32332318772688        0.23161165898117        1.70858317024240
C            2.75802048459246        1.46829193805428        1.24180887573477
C           -0.08115314067652        2.02639358919587       -0.53924189996389
C           -1.38056316407742        1.58283754610568       -0.65689040872258
N           -4.58746886050881        1.23996158041009        0.61205062002737
C           -5.75209043197333        0.63532759569082        0.33756264205871
C           -6.96906496102472        1.23001269453462        0.67073182655520
C           -8.15998248678221        0.60248826135216        0.33198117087536
F           -9.33682135731022        1.20017547131837        0.66037304108567
H           -6.98757140917922       -2.18036858753958       -1.18750165334835
H           -1.81777775084971       -1.44617531024352        1.63078289689865
H            0.50281878698272       -2.24200596156747        1.41396735643974
H            0.50404354977071       -4.56946768280724        0.00798150071305
H            1.46651163301841       -6.64113526878644        0.90201389834051
H            3.92193718936628       -6.89928084515264        1.07633638331730
H            5.40034992848286       -5.05674516236888        0.30542797236327
H            6.09068865082528       -0.90883736042272       -1.48877770519291
H            5.28366446847660        1.27271605967001       -2.36386935856279
H            2.85318593106191        1.70268454621759       -2.48993448283496
H            1.25589993564479       -0.01795420615776       -1.76667732473015
H            0.14481777595112       -2.10788588528493       -2.83957040225383
H           -2.20364915284724       -1.37563363986921       -2.61925126244701
H           -2.20456199743932        1.37365189689539        2.61761765299731
H            0.14353403633005        2.10713163460414        2.83802523775283
H            0.50161605141077        4.56874575695334       -0.00916730121894
H            1.46301756013600        6.64106474965764       -0.90290054956191
H            3.91830559951887        6.90050718634261       -1.07715008167426
H            5.39767199569190        5.05864184598542       -0.30648851859391
H            6.09011016676078        0.91085241702191        1.48730720799510
H            5.28417560734859       -1.27113713060913        2.36228897711602
H            2.85391474606075       -1.70233201431542        2.48833643293657
H            1.25576428156880        0.01753999112750        1.76513845803609
H            0.50173061182534        2.24105401345459       -1.41549600656835
H           -1.81842139464757        1.44391833245974       -1.63239388548027
H           -6.98855738102796        2.17532278414904        1.18659185611725
