71

Cl    -1.672030   -2.445976   -1.207309
C     -0.817686   -1.154590   -0.418374
C      0.574511   -1.125760   -0.342340
N      1.374119   -2.276562   -0.630320
C      2.529511   -2.253318   -1.411651
C      3.167999   -1.200847   -2.098838
C      4.299419   -1.489749   -2.866725
C      4.782053   -2.788537   -2.962910
C      4.143565   -3.830852   -2.285750
C      3.001557   -3.564099   -1.498811
C      2.167398   -4.381007   -0.680136
C      2.187624   -5.754151   -0.350723
C      1.267673   -6.264218    0.568258
C      0.343125   -5.423887    1.173797
C      0.298951   -4.062418    0.860333
C      1.196453   -3.557645   -0.104109
N      1.259893   -0.000237    0.000093
C      0.574927    1.125541    0.342511
N      1.374949    2.276076    0.630387
C      1.197756    3.557163    0.104027
C      0.300422    4.062159   -0.860456
C      0.345094    5.423574   -1.174070
C      1.269969    6.263631   -0.568651
C      2.189756    5.753326    0.350362
C      2.169016    4.380229    0.679944
C      3.002848    3.563113    1.498747
C      4.144911    3.829546    2.285718
C      4.782960    2.787082    2.963067
C      4.299859    1.488460    2.867013
C      3.168385    1.199874    2.099078
C      2.530318    2.252497    1.411738
C     -0.817257    1.154886    0.418563
Cl    -1.671112    2.446621    1.207452
C     -1.505920    0.000273    0.000108
N     -2.923330    0.000537    0.000095
C     -3.716328   -0.732014    0.873667
C     -3.376296   -1.588040    1.938695
C     -4.410399   -2.191356    2.659311
C     -5.740887   -1.946014    2.339464
C     -6.070718   -1.082444    1.290531
C     -5.045803   -0.459289    0.546692
C     -5.045619    0.460983   -0.546696
C     -6.070284    1.084419   -1.290645
C     -5.740106    1.947908   -2.339536
C     -4.409517    2.192896   -2.659230
C     -3.375658    1.589290   -1.938508
C     -3.716035    0.733343   -0.873528
H      2.802425   -0.179661   -2.041559
H      4.805466   -0.685131   -3.395513
H      5.663432   -2.996550   -3.564166
H      4.532657   -4.842366   -2.360116
H      2.929399   -6.411892   -0.795204
H      1.289651   -7.321006    0.822300
H     -0.355710   -5.829060    1.902346
H     -0.424137   -3.425485    1.358950
H     -0.422912    3.425439   -1.358988
H     -0.353612    5.828924   -1.902648
H      1.292321    7.320383   -0.822802
H      2.931776    6.410843    0.794764
H      4.534363    4.840925    2.359997
H      5.664352    2.994856    3.564398
H      4.805553    0.683725    3.395973
H      2.802431    0.178819    2.041915
H     -2.343159   -1.780854    2.208324
H     -4.170854   -2.859344    3.483788
H     -6.532861   -2.423521    2.911287
H     -7.113470   -0.890929    1.053619
H     -7.113114    0.893186   -1.053856
H     -6.531888    2.425627   -2.911448
H     -4.169702    2.860828   -3.483673
H     -2.342440    1.781826   -2.208022
