  45
 
 C         -4.5915588423        3.5789614062        0.0820469397
 C         -3.2138202794        3.6118998922        0.0108560032
 C         -2.4859492397        2.4313363694       -0.0296731868
 C         -3.1302968464        1.2016341497        0.0001510638
 C         -4.5298171588        1.1772262552        0.0721849475
 C         -5.2493143929        2.3558491176        0.1127263820
 O         -5.2452734349       -0.0000850174        0.1052277323
 C         -4.5297382320       -1.1773456492        0.0720816301
 C         -5.2491606590       -2.3560199244        0.1124507933
 C         -4.5913268855       -3.5790858004        0.0815997949
 C         -3.2135871286       -3.6119256225        0.0103843015
 C         -2.4857909916       -2.4313101527       -0.0299755942
 C         -3.1302147816       -1.2016533145        0.0000747958
 N         -2.4280354545        0.0000153421       -0.0410375400
 C         -1.0086453493        0.0000675380       -0.0916039226
 C         -0.2701425327       -0.0006912706        1.0879436357
 C          1.1082873499       -0.0006207322        1.0392917439
 C          1.7702075352        0.0001863949       -0.1921955495
 C          3.2159071338        0.0002063866       -0.2161116672
 N          3.9586617240       -0.0004317366        0.8304615965
 C          5.2863671230       -0.0002808410        0.5372328997
 C          6.3294938379       -0.0008881932        1.4618369681
 C          7.6274220981       -0.0006726465        0.9990540267
 C          7.9062020695        0.0001374880       -0.3675338906
 C          6.8900414024        0.0007653032       -1.3031971378
 C          5.5830508233        0.0005435611       -0.8458116615
 S          4.1060506953        0.0011301512       -1.7581611496
 C          1.0221842739        0.0009393873       -1.3698351404
 C         -0.3574177764        0.0008861237       -1.3202854940
 H         -5.1632057960        4.4932375893        0.1137898990
 H         -2.6905738430        4.5556240825       -0.0135741893
 H         -1.4085935626        2.4617912633       -0.0841164116
 H         -6.3252314165        2.2983100219        0.1681199612
 H         -6.3250824088       -2.2985570081        0.1678329104
 H         -5.1629159200       -4.4934031266        0.1132015842
 H         -2.6902827284       -4.5556131601       -0.0142210916
 H         -1.4084366786       -2.4616915270       -0.0844895185
 H         -0.7852509139       -0.0013256518        2.0369426519
 H          1.6959609356       -0.0011977411        1.9434784481
 H          6.1009852122       -0.0015077505        2.5157916158
 H          8.4446047268       -0.0011343235        1.7045434271
 H          8.9328748408        0.0002827515       -0.7010455232
 H          7.1020712645        0.0013874459       -2.3611888219
 H          1.5273287240        0.0015501984       -2.3246591744
 H         -0.9380385167        0.0014739709       -2.2305880878
