  105
 
 O         -9.2772232378       -1.3067358391       -0.7263757448
 P         -8.9244246235       -0.0356766079       -0.0646565505
 C         -8.4180172925        1.2722720503       -1.2232623931
 C         -8.8649496818        1.1652162033       -2.5326157594
 C         -8.5167497465        2.1261427839       -3.4652554916
 C         -7.7197971304        3.1949527011       -3.0878866157
 C         -7.2706046288        3.3016146855       -1.7806988858
 C         -7.6198060618        2.3441024005       -0.8456714626
 C        -10.2902405474        0.6566191531        0.9165382728
 C        -11.4773126901       -0.0609104302        0.9584278808
 C        -12.5558072373        0.4241153444        1.6777227928
 C        -12.4465796087        1.6286315491        2.3535323099
 C        -11.2618032493        2.3484891177        2.3094911207
 C        -10.1825607203        1.8667276217        1.5916216472
 C         -7.5204390323       -0.2158801781        1.0824503227
 C         -7.5996384393       -0.2596542419        2.4668106888
 C         -6.4683318086       -0.4956165551        3.2434153029
 C         -5.2261429071       -0.7013173578        2.6706242620
 C         -5.1219156566       -0.6693591286        1.2852946586
 C         -6.2750609374       -0.4318465416        0.5141289430
 O         -6.0127826507       -0.4284118097       -0.8163854382
 C         -4.6721131266       -0.6685612886       -0.9354619697
 C         -3.9490348374       -0.7557924118       -2.1112210978
 C         -2.5944316803       -1.0099160956       -2.0060042265
 C         -1.9593235800       -1.1669860123       -0.7668578761
 C         -0.5136639280       -1.4388443542       -0.7096876893
 C          0.0762595997       -2.3577763652       -1.5731990403
 C          1.4314983105       -2.6216357465       -1.5092076358
 C          2.2408276067       -1.9607307194       -0.5939825080
 C          3.7151489753       -2.2914626294       -0.4680351164
 C          4.5632918552       -1.0711226656       -0.1720377502
 C          4.2909950916        0.1380810219       -0.8039027595
 C          5.0897813845        1.2443909367       -0.5915970746
 C          6.1928367658        1.1579611543        0.2522780133
 N          7.0067069731        2.2814133295        0.4709933059
 C          7.5854328844        3.0620690999       -0.5085926420
 C          7.5619203967        2.9096263446       -1.8880872501
 C          8.2535986875        3.8308543503       -2.6510330282
 C          8.9608721292        4.8782304645       -2.0631400591
 C          9.0068727144        5.0217782045       -0.6906299925
 C          8.3198812914        4.1076227436        0.0983834655
 C          8.1669337945        3.9422465112        1.5169431551
 C          8.6289894798        4.6509073695        2.6189901722
 C          8.2692991554        4.2214639079        3.8810636445
 C          7.4484559282        3.1080725094        4.0522985537
 C          6.9764998803        2.3867728408        2.9723781394
 C          7.3516589360        2.8010605401        1.7018236029
 C          6.4796139932       -0.0516014277        0.8756917021
 C          5.6709216687       -1.1522373064        0.6626921192
 C          4.2933226214       -2.9670926884       -1.6986441577
 C          4.4627231658       -2.4506864641       -2.9657706853
 C          5.0339254405       -3.2553403077       -3.9430504018
 C          5.4315640309       -4.5519597426       -3.6530819120
 C          5.2704845659       -5.0741430352       -2.3795742958
 C          4.7015976898       -4.2751101822       -1.4009639268
 C          4.4147830606       -4.5431665728       -0.0005748460
 C          4.6150469237       -5.6805739156        0.7649123526
 C          4.2413971258       -5.6578961250        2.0992044892
 C          3.6751330226       -4.5216842991        2.6575137155
 C          3.4717341639       -3.3794091298        1.8942931795
 C          3.8491284489       -3.3930759393        0.5681582959
 C          1.6536378233       -1.0442728784        0.2720434863
 C          0.2978426400       -0.7883518365        0.2168378036
 C         -2.6966375459       -1.0699282057        0.4072292062
 C         -4.0589392075       -0.8239664577        0.3242530699
 H         -9.4733171573        0.3132297509       -2.8041443297
 H         -8.8628355917        2.0393550616       -4.4849220824
 H         -7.4427699084        3.9443007899       -3.8147889586
 H         -6.6427883597        4.1315591454       -1.4905084912
 H         -7.2586725695        2.4170942227        0.1708170567
 H        -11.5343866138       -0.9975975233        0.4213582792
 H        -13.4785456085       -0.1364921073        1.7106014422
 H        -13.2867671952        2.0092355596        2.9154754356
 H        -11.1805385735        3.2877940912        2.8365853314
 H         -9.2576199601        2.4226941753        1.5531998964
 H         -8.5574704409       -0.1043100226        2.9422709655
 H         -6.5695771330       -0.5197919500        4.3180307751
 H         -4.3565632471       -0.8847371825        3.2822583737
 H         -4.4325692457       -0.6297205398       -3.0669790662
 H         -2.0014750595       -1.0717593352       -2.9059747745
 H         -0.5364116081       -2.8901726377       -2.2860495180
 H          1.8632529451       -3.3502821526       -2.1797271363
 H          3.4332746456        0.2217269813       -1.4548363355
 H          4.8569711329        2.1839801504       -1.0704262918
 H          7.0293960929        2.0924331555       -2.3510966321
 H          8.2489379410        3.7358341576       -3.7273092303
 H          9.4866833892        5.5799333066       -2.6941972839
 H          9.5676804158        5.8247377202       -0.2355615606
 H          9.2535083495        5.5220410956        2.4868797495
 H          8.6197304299        4.7578621751        4.7508367182
 H          7.1732092457        2.8040031306        5.0519418888
 H          6.3300571230        1.5336398101        3.1136790905
 H          7.3453101797       -0.1297935145        1.5165749336
 H          5.9102294207       -2.0863159946        1.1488390917
 H          4.1543020979       -1.4427063350       -3.2000922633
 H          5.1699193079       -2.8659299226       -4.9416621621
 H          5.8731735124       -5.1604872943       -4.4291940895
 H          5.5832458238       -6.0833280420       -2.1557426837
 H          5.0525815767       -6.5679529012        0.3319852198
 H          4.3906260754       -6.5356557936        2.7115293883
 H          3.3877351797       -4.5249870346        3.6990130172
 H          3.0295094984       -2.4990517326        2.3363055739
 H          2.2655094001       -0.5173459935        0.9898650191
 H         -0.1358458903       -0.0605325374        0.8871239733
 H         -2.2229800524       -1.2052033789        1.3671422789
