  115
 
 O        -11.2229250335       -1.9599410699        1.2157849514
 P         -9.9319568899       -1.9711428404        0.4981935764
 C         -9.3801212965       -3.6423593957        0.0450172362
 C        -10.1634726853       -4.7133124428        0.4547305824
 C         -9.7731543741       -6.0085437620        0.1635504218
 C         -8.5959772189       -6.2338774734       -0.5322459995
 C         -7.8105903387       -5.1648075827       -0.9387710199
 C         -8.1974263522       -3.8690917789       -0.6513492073
 C         -9.9658670247       -0.9723403052       -1.0278268755
 C        -10.0134964038        0.4072783557       -0.8764914828
 C        -10.0808701933        1.2242043082       -1.9898954924
 C        -10.1078584010        0.6614354073       -3.2567163330
 C        -10.0772323288       -0.7150711211       -3.4074130054
 C        -10.0087013763       -1.5352824326       -2.2936180713
 C         -8.5877203017       -1.2574071040        1.4867729448
 C         -8.7232808493       -1.1730783886        2.8708479870
 C         -7.7221637563       -0.6308643739        3.6660693807
 C         -6.5502727098       -0.1452351780        3.1127066840
 C         -6.3909377766       -0.2138656859        1.7306193465
 C         -7.4086178984       -0.7774634353        0.9378649531
 O         -7.0895274603       -0.7628929940       -0.3832377899
 C         -5.8583858675       -0.1749620653       -0.4704379333
 C         -5.1377234597        0.0610593865       -1.6251814569
 C         -3.9003995640        0.6647063526       -1.4884077637
 C         -3.3861492333        1.0324619664       -0.2372508076
 C         -2.0639691704        1.6732680314       -0.1486747453
 C         -0.9935617443        1.2126210092       -0.9120351106
 C          0.2476636873        1.8108532211       -0.8229219515
 C          0.4586209792        2.8885055234        0.0307524963
 C          1.8058515201        3.5777514334        0.0651682556
 C          2.9654319012        2.6174711124       -0.0201711017
 C          4.1596999629        2.9662233994       -0.6714015932
 C          5.2325484051        2.1215140391       -0.6925297858
 C          5.2118217367        0.8528150768       -0.0320104171
 C          6.3192388638       -0.0223009909       -0.0471986696
 C          6.4279982441       -1.1419117292        0.8481672694
 C          7.4898686135       -1.9878795879        0.8273808170
 C          8.5651882993       -1.7932191467       -0.0783418614
 N          9.6488952070       -2.6429428709       -0.0908304335
 C          9.6016776913       -4.0251232770        0.0081594903
 C          8.5030421640       -4.8722791259        0.0605230320
 C          8.7357913955       -6.2352797249        0.1237940653
 C         10.0309750367       -6.7507477441        0.1194998508
 C         11.1300501518       -5.9156558144        0.0236080328
 C         10.9205116933       -4.5457446214       -0.0427532514
 C         11.8003903580       -3.4195379262       -0.1824763000
 C         13.1794823674       -3.2925994084       -0.2668268052
 C         13.7245949979       -2.0237258355       -0.3526122162
 C         12.9131404852       -0.8905256163       -0.3292147752
 C         11.5352135166       -0.9932382187       -0.2474183247
 C         10.9777048666       -2.2639464988       -0.2054147832
 C          8.4872028079       -0.6912002535       -0.9695159076
 C          7.4166982711        0.1438578579       -0.9609432373
 C          3.9954451480        0.5352714171        0.6505122519
 C          2.9250170510        1.3819596629        0.6500697664
 C          1.8286179218        4.6433365512       -1.0156664984
 C          1.6264711226        4.4973029569       -2.3712908814
 C          1.6833516019        5.6258500482       -3.1791406902
 C          1.9359809279        6.8767440243       -2.6357520393
 C          2.1330734302        7.0308983986       -1.2729073195
 C          2.0759852684        5.9083765076       -0.4617525117
 C          2.2285599376        5.7631034976        0.9758339007
 C          2.4930546628        6.7015094290        1.9608644970
 C          2.5723913250        6.2794558771        3.2778917101
 C          2.3933718916        4.9426783583        3.6066275790
 C          2.1356430108        3.9967575211        2.6244460189
 C          2.0467457642        4.4121939413        1.3117891575
 C         -0.6100999125        3.3600999845        0.7821664672
 C         -1.8507488260        2.7569422066        0.6995652909
 C         -4.1253234580        0.7938452873        0.9146774818
 C         -5.3679368733        0.1846840196        0.8011713926
 H        -11.0769132739       -4.5080983682        0.9959078785
 H        -10.3858050823       -6.8402906394        0.4794241232
 H         -8.2892348489       -7.2442212223       -0.7597550515
 H         -6.8940396858       -5.3434128474       -1.4821953740
 H         -7.5969006898       -3.0299956518       -0.9694386678
 H         -9.9945145259        0.8266551460        0.1222482171
 H        -10.1104728463        2.2976606228       -1.8712460336
 H        -10.1563484317        1.2985843219       -4.1276009055
 H        -10.1060787296       -1.1527857879       -4.3947286273
 H         -9.9849469639       -2.6108056428       -2.4035134935
 H         -9.6442145924       -1.5317720981        3.3083471892
 H         -7.8678205618       -0.5837217433        4.7351176809
 H         -5.7771624342        0.2818239897        3.7320242970
 H         -5.5330087289       -0.2121782337       -2.5909152036
 H         -3.3209357107        0.8786341367       -2.3735431781
 H         -1.1310649290        0.3641044627       -1.5664640328
 H          1.0680043512        1.4301077516       -1.4146955177
 H          4.2268792112        3.9232863927       -1.1693276831
 H          6.1306184201        2.4445153277       -1.1944226541
 H          5.6706564143       -1.2857887589        1.6015283363
 H          7.5651261838       -2.7806108663        1.5569867073
 H          7.4948978802       -4.4896226849        0.0333403199
 H          7.8963858901       -6.9127114011        0.1693510997
 H         10.1742949860       -7.8196335270        0.1749080442
 H         12.1307591491       -6.3190393683       -0.0069661042
 H         13.8118457664       -4.1672594273       -0.2572861721
 H         14.7956675632       -1.9047600295       -0.4215898735
 H         13.3682296079        0.0877559497       -0.3672709857
 H         10.9218335283       -0.1073124100       -0.1979668957
 H          9.2623534780       -0.5703904122       -1.7117865346
 H          7.3658732729        0.9229311479       -1.7041016814
 H          3.9012526637       -0.4131982901        1.1549640207
 H          2.0187504286        1.0937357114        1.1641156374
 H          1.4285796933        3.5267606232       -2.8012854337
 H          1.5285190156        5.5271495236       -4.2438467714
 H          1.9770874136        7.7409717487       -3.2832511940
 H          2.3259197503        8.0067234513       -0.8521034684
 H          2.6342294199        7.7418704369        1.7072814081
 H          2.7768125355        6.9973990332        4.0591904643
 H          2.4562182692        4.6341922428        4.6402020079
 H          2.0004821700        2.9582363172        2.8876276746
 H         -0.4714292507        4.2071987718        1.4385270829
 H         -2.6717143402        3.1452696041        1.2847509650
 H         -3.7341468501        1.0582755971        1.8849338490
