  52
 
 O         -1.6548002975       -0.2224325957        2.4500895308
 C         -2.5995842296        0.7516832378        2.0715079797
 C         -3.4420656998        0.3568875929        0.8761533153
 C         -4.8262643480        0.3664908834        0.9745159921
 C         -5.6248822881       -0.0077951272       -0.0918657840
 C         -5.0401494603       -0.4164817251       -1.2783685461
 C         -3.6634064456       -0.4412953115       -1.3896509090
 C         -2.8519901806       -0.0485123782       -0.3271158240
 C         -1.3898831119       -0.0659105165       -0.4800924301
 C         -0.6852812383        1.1720992183       -0.5664780359
 C         -1.3555152303        2.3943014740       -0.6429941465
 C         -0.6532893488        3.5967884677       -0.7406195426
 C          0.7225071461        3.5891175309       -0.7800101743
 C          1.4154471549        2.3779572924       -0.7187177975
 C          0.7371368578        1.1655067474       -0.6014222263
 C          1.4343216873       -0.0787235985       -0.5282178820
 C          2.8902393152       -0.0665834488       -0.3307326984
 C          3.7530238461       -0.4976714532       -1.3362465261
 C          5.1221761146       -0.4789293127       -1.1509890959
 C          5.6500937648       -0.0375974357        0.0509272157
 C          4.8020000097        0.3781159441        1.0625753422
 C          3.4263301333        0.3722405136        0.8869825470
 C          2.5180632366        0.8235041925        2.0067456015
 O          1.3403708007        0.0578199936        2.1435498187
 C          0.7292932651       -1.3199375564       -0.5833251763
 C          1.3933455417       -2.5466296791       -0.5865715179
 C          0.6887523300       -3.7525368024       -0.5932117450
 C         -0.6865543962       -3.7439613123       -0.5642063467
 C         -1.3754955318       -2.5301891131       -0.5286828432
 C         -0.6968071968       -1.3120238561       -0.5541899158
 H         -0.8163600041       -0.0705649330        1.9955325488
 H         -2.1092491793        1.7150273659        1.8724222910
 H         -3.2610643821        0.8820503631        2.9347543351
 H         -5.2854648090        0.6698329741        1.9046879075
 H         -6.7001761208        0.0116522536        0.0060204600
 H         -5.6547102634       -0.7158680247       -2.1146758591
 H         -3.1970408477       -0.7498458484       -2.3145917587
 H         -2.4355537619        2.4077360888       -0.6320400165
 H         -1.1983547585        4.5277748533       -0.7888974164
 H          1.2746238246        4.5137264208       -0.8608999374
 H          2.4945882624        2.3795897838       -0.7719286049
 H          3.3345341969       -0.8276487645       -2.2761654744
 H          5.7775816267       -0.8076487008       -1.9439371158
 H          6.7188458839       -0.0228904572        0.2030552096
 H          5.2131540126        0.7120750259        2.0049500739
 H          2.1703771142        1.8442712903        1.8108712007
 H          3.0801857712        0.8305342371        2.9511961378
 H          1.5787444010       -0.8595860375        2.3189204477
 H          2.4730633926       -2.5680782761       -0.5794211229
 H          1.2333313721       -4.6850127607       -0.6076102839
 H         -1.2412381982       -4.6702136523       -0.5544135861
 H         -2.4526499747       -2.5350886406       -0.4670324939
