  90
 
 C          9.4291001300       -2.4962266194       -0.8819805022
 C          8.8984959720       -1.5159215157        0.1810957182
 C          9.9386828038       -1.3315581336        1.3020633417
 C          8.6513550523       -0.1760257650       -0.4805856959
 C          9.7030438083        0.4898957086       -1.0944997480
 C          9.5285610522        1.7023668363       -1.7356199548
 C          8.2656289868        2.2692245051       -1.7854127493
 C          7.2037795682        1.6322858183       -1.1831488272
 C          7.3810117117        0.4163724738       -0.5096264031
 N          6.2996074140       -0.1903023634        0.0973359946
 C          5.0351218458        0.4629488572        0.0710745750
 C          4.7991869318        1.5614718630        0.8929610175
 C          3.5665190384        2.1766198814        0.8825048079
 C          2.5364486180        1.7104670115        0.0569383963
 C          1.2325012293        2.3595237056        0.0636066688
 C          1.1522915590        3.7334666678        0.0725012551
 N         -0.0002316642        4.3968064565        0.0277454264
 C         -1.1521019356        3.7332732681       -0.0257995064
 C         -1.2313049426        2.3591819845       -0.0349754119
 C         -2.5346541699        1.7092907631       -0.0344203482
 C         -3.5670610755        2.1858719158       -0.8512358469
 C         -4.7996527438        1.5708116761       -0.8662728437
 C         -5.0335246513        0.4617671138       -0.0578684264
 N         -6.2984997503       -0.1900229922       -0.0878119625
 C         -7.3790618294        0.4141126645        0.5234306324
 C         -7.2001720079        1.6250564642        1.2054640736
 C         -8.2612317716        2.2597678987        1.8114457323
 C         -9.5251205611        1.6954764798        1.7572098737
 C         -9.7011348632        0.4872960511        1.1084896224
 C         -8.6502247671       -0.1763444427        0.4907590120
 C         -8.8990628671       -1.5122792141       -0.1781923079
 C         -9.9392200255       -1.3207774214       -1.2979876347
 C         -9.4306036054       -2.4976007039        0.8797730728
 C         -7.6353245447       -2.0845440275       -0.7868461660
 C         -7.6839279282       -3.3088877041       -1.4392022293
 C         -6.5675887806       -3.8669991569       -2.0337549261
 C         -5.3633031932       -3.1834622363       -1.9951014228
 C         -5.2850470109       -1.9665212134       -1.3556462386
 C         -6.4083745423       -1.4087323423       -0.7309461082
 C         -4.0237055159       -0.0104178172        0.7758377114
 C         -2.7922753330        0.6068774154        0.7880844185
 C          0.0010007281        1.6146904839        0.0088694314
 C          0.0013774716        0.2354550364       -0.0017827896
 N          0.0013002382       -0.9259362775       -0.0105298671
 C          2.7964305391        0.6192004242       -0.7794207826
 C          4.0279223877        0.0018222594       -0.7717885137
 C          6.4076849662       -1.4128700352        0.7332202269
 C          5.2829821971       -1.9734763907        1.3528726088
 C          5.3595577566       -3.1939918552        1.9856862565
 C          6.5634053769       -3.8784110033        2.0223781897
 C          7.6808638326       -3.3180131448        1.4320594841
 C          7.6339619752       -2.0901020371        0.7863355868
 H         10.3481920074       -2.1257597973       -1.3269990056
 H          9.6311930302       -3.4697305763       -0.4445553236
 H          8.6906750206       -2.6208295564       -1.6717003612
 H         10.1558081211       -2.2782704952        1.7884327972
 H          9.5572549568       -0.6402124518        2.0511429140
 H         10.8676774926       -0.9308633951        0.9064137605
 H         10.6901830162        0.0536934536       -1.0770631803
 H         10.3688997638        2.1946367184       -2.2004252194
 H          8.1067367493        3.2064860892       -2.2967616451
 H          6.2195472574        2.0702281855       -1.2349737444
 H          5.5852550743        1.9145818625        1.5449098169
 H          3.3809306551        3.0115571480        1.5419097580
 H          2.0450826468        4.3429480957        0.0645666993
 H         -2.0453850794        4.3418604990       -0.0090806515
 H         -3.3833143900        3.0292241566       -1.5003648557
 H         -5.5874716937        1.9322665257       -1.5115114690
 H         -6.2152528056        2.0609315788        1.2611608923
 H         -8.1009302715        3.1932671127        2.3291960227
 H        -10.3649096898        2.1861811818        2.2246509203
 H        -10.6888885865        0.0526249142        1.0880492520
 H        -10.8676370797       -0.9209541479       -0.9001089400
 H        -10.1576453313       -2.2646734199       -1.7892252578
 H         -9.5570273560       -0.6260514118       -2.0435384387
 H         -8.6922133841       -2.6271491059        1.6687288713
 H         -9.6338215676       -3.4685708667        0.4372724417
 H        -10.3492304810       -2.1284813498        1.3268696224
 H         -8.6183161083       -3.8469228737       -1.4896487748
 H         -6.6397824541       -4.8228172348       -2.5295351858
 H         -4.4836640691       -3.5961442396       -2.4645648907
 H         -4.3463192067       -1.4364374665       -1.3371838484
 H         -4.2150139863       -0.8628146894        1.4110343999
 H         -2.0221297234        0.2417571907        1.4487075286
 H          2.0280995318        0.2626568147       -1.4467972320
 H          4.2210423320       -0.8423572550       -1.4173116784
 H          4.3445634505       -1.4427931453        1.3355529631
 H          4.4789620594       -3.6088070903        2.4514652486
 H          6.6343177004       -4.8369070824        2.5131495460
 H          8.6147280557       -3.8571421678        1.4805217489
