  51
 
 O          3.0760662611        0.5943524384        1.0967198437
 C          2.4961885544       -0.1163282503        0.3088998675
 C          3.2275007760       -1.0839339956       -0.6194126207
 C          4.6037975270       -1.4352292538       -0.0931128212
 O          4.7843654568       -2.5642082316        0.3548049667
 C          5.6520946690       -0.4228578809       -0.1156885537
 C          5.4612770339        0.8494950154       -0.6735740696
 C          6.4601847077        1.7932320900       -0.6561915774
 C          7.6899136353        1.4925422193       -0.0771228270
 C          7.9123657359        0.2526832386        0.4734532739
 C          6.9094026750       -0.7220928969        0.4643387828
 O          7.1891815693       -1.9052577077        1.0100021972
 C          1.0211796364       -0.1041401628        0.1906592719
 C          0.3274580441       -0.6126182353       -0.9086143573
 C         -1.0490399785       -0.5497749773       -0.9550691510
 C         -1.7692014285        0.0147862847        0.0984497698
 N         -3.1709074007        0.0674439531        0.0472907185
 C         -3.8432105462        1.2943694100        0.1094715205
 C         -3.1717448899        2.5098640164        0.1567370251
 C         -3.8696903849        3.7065039600        0.2117879087
 C         -5.2498806529        3.7109159078        0.2066300162
 C         -5.9350669642        2.5089729667        0.1192467781
 C         -5.2433197902        1.3127356513        0.0609227730
 O         -5.9925312570        0.1712446036       -0.0675875231
 C         -5.3216594070       -1.0229361282       -0.1326356168
 C         -6.0920114360       -2.1659713122       -0.2463898219
 C         -5.4917293142       -3.4152089357       -0.2769816510
 C         -4.1191059896       -3.5115794939       -0.1692738189
 C         -3.3424411272       -2.3685638773       -0.0581502171
 C         -3.9247270974       -1.1070496934       -0.0668587644
 C         -1.0806948319        0.5290004456        1.1975164758
 C          0.2946423002        0.4741723822        1.2351227742
 H          3.2975637482       -0.6287076685       -1.6088132782
 H          2.6572387051       -2.0120790956       -0.6906664390
 H          4.5147242846        1.1043305143       -1.1217053073
 H          6.2908246907        2.7672843657       -1.0885805816
 H          8.4735742926        2.2352615275       -0.0612007250
 H          8.8572639381       -0.0031282059        0.9264239824
 H          6.3868799283       -2.4776512572        0.9333113107
 H          0.8576309576       -1.0340158755       -1.7485803506
 H         -1.5815024048       -0.9271553774       -1.8156131037
 H         -2.0934671103        2.5264024453        0.1403746179
 H         -3.3202670782        4.6341485027        0.2543695084
 H         -5.7975715392        4.6385802276        0.2555021447
 H         -7.0122876601        2.4761132812        0.0876277515
 H         -7.1629569958       -2.0546316599       -0.3024662345
 H         -6.1000367683       -4.3008216650       -0.3694497270
 H         -3.6376528355       -4.4771925221       -0.1652878977
 H         -2.2732897424       -2.4629368363        0.0481600371
 H         -1.6345258906        0.9578556981        2.0191798066
 H          0.8392003944        0.8637780508        2.0820219131
