  72
 
 C         -2.4679498152        5.0481639851        0.4174322157
 C         -1.6817617722        3.7736607853        0.4223606706
 C         -0.2961362592        3.7766283683        0.5081294540
 C          0.4188564218        2.5969242221        0.5056995528
 C         -0.2291171514        1.3622095879        0.4309991291
 C         -1.6188101117        1.3512889820        0.2957089726
 C         -2.3182611145        2.5482363989        0.3010553214
 C         -2.3957780378        0.0739082545        0.1005480463
 C         -3.5100159688       -0.0425752758        1.1227732821
 C         -3.4015885943       -0.1262626089        2.4928736741
 C         -4.5650075240       -0.2276940738        3.2440464076
 C         -5.8074649893       -0.2451751654        2.6287868660
 C         -5.9205444769       -0.1619884051        1.2500088827
 C         -4.7635457040       -0.0601593895        0.4956590086
 C         -4.5619186006        0.0428537411       -0.9420622423
 C         -5.4667012853        0.0680494465       -1.9902024234
 C         -4.9804214394        0.1773274765       -3.2833551365
 C         -3.6181732508        0.2615600927       -3.5270954435
 C         -2.7064329738        0.2366615949       -2.4800166613
 C         -3.1853150641        0.1260055214       -1.1938183582
 C         -1.5182652882       -1.1512749848        0.1420319922
 C         -2.1177044045       -2.3959153847        0.0233089363
 C         -1.3909083727       -3.5736756977        0.0991457391
 C         -2.0697206546       -4.9027583112       -0.0246346957
 C         -0.0258462334       -3.4782017854        0.3362415691
 C          0.5897346450       -2.2501826844        0.4578375528
 C         -0.1379836687       -1.0647969882        0.3275163940
 N          0.4975573084        0.1718420773        0.4329788197
 C          1.8973247987        0.2067191799        0.5620177092
 C          2.4793330717        0.6790324918        1.7281997832
 C          3.8637554256        0.7352391055        1.9272256123
 C          4.6863775228        0.3061564935        0.9108007142
 C          4.0992204043       -0.1664160515       -0.2872789296
 C          5.0655447277       -0.5560711490       -1.2437368953
 C          4.6475343161       -1.0206543285       -2.4667078282
 C          3.2651238443       -1.0817138998       -2.7140235445
 C          2.3239354259       -0.7100432153       -1.7822159774
 C          2.7227687851       -0.2377203084       -0.5120054922
 C          6.3589677472       -0.3354963291       -0.6222720620
 N          7.5363057565       -0.5587453265       -1.1237222327
 C          8.5290976716       -0.2384448584       -0.2637727091
 N          9.8306353556       -0.3314549781       -0.4223820338
 O         10.3680571485        0.1105710794        0.7156032735
 N          9.4680328392        0.4935385917        1.6237232073
 C          8.2923547509        0.2980971929        1.0674842040
 N          7.0596072106        0.5247131170        1.5696520484
 C          6.1178246577        0.2072278124        0.7286684344
 H         -2.7219870035        5.3277365527       -0.6056002633
 H         -1.8944053451        5.8596484929        0.8585861953
 H         -3.3968366300        4.9288552454        0.9710491486
 H          0.2367947456        4.7139144497        0.5736052235
 H          1.4959766700        2.6387539148        0.5527648842
 H         -3.3941748231        2.5173430440        0.2027177126
 H         -2.4332471616       -0.1137294844        2.9719852395
 H         -4.5015418893       -0.2938256498        4.3201914202
 H         -6.6991904188       -0.3248816819        3.2333443471
 H         -6.8906401619       -0.1763514620        0.7756595301
 H         -6.5287869711        0.0042953277       -1.8053419186
 H         -5.6715593984        0.1982807966       -4.1133549618
 H         -3.2622930783        0.3479258417       -4.5432092284
 H         -1.6450394270        0.3060003501       -2.6710403967
 H         -3.1866410349       -2.4412369823       -0.1298495503
 H         -2.8910229566       -4.8510792812       -0.7359359238
 H         -2.4801592169       -5.2042598850        0.9397560804
 H         -1.3681560250       -5.6681256217       -0.3476838642
 H          0.5669677594       -4.3757817349        0.4344588011
 H          1.6482677609       -2.2133549713        0.6641021708
 H          1.8252205494        1.0075112181        2.5233406741
 H          4.2682947160        1.0954557375        2.8596867504
 H          5.3561492062       -1.3266702841       -3.2199409019
 H          2.9325534401       -1.4362309699       -3.6785017075
 H          1.2728846138       -0.7793873620       -2.0200042691
