  113
 
 C         -8.6879098765       -2.2481593668       -4.0353601004
 C         -8.2215972614       -1.0042115625       -3.6161436017
 C         -7.2255225053       -0.8900723065       -2.6642200914
 C         -6.7069105223       -2.0600500611       -2.1256158910
 C         -7.1564708400       -3.3276248991       -2.5643418314
 C         -8.1569086541       -3.4168531579       -3.5221430399
 C         -6.3827152225       -4.3056548880       -1.8480123636
 C         -6.3720251899       -5.6935282659       -1.8352574160
 C         -5.4911774532       -6.3411200428       -0.9891294603
 C         -4.6408851067       -5.6219792117       -0.1519461067
 C         -4.6338129845       -4.2395117131       -0.1469802561
 C         -5.4980443806       -3.5836686347       -1.0132733663
 N         -5.7076511607       -2.2303031292       -1.1877848777
 C         -5.0021867724       -1.2034147359       -0.5429627339
 C         -3.6162585819       -1.2145541496       -0.5390259793
 C         -2.8941828693       -0.1837039463        0.0790745180
 C         -1.4503831508       -0.1635273044        0.0494109400
 C         -0.6879907614       -1.3578736235        0.0090473105
 C          0.6790337195       -1.3612606029       -0.0065358154
 C          1.4473343025       -0.1707959186       -0.0498291664
 C          2.8910192203       -0.1981580370       -0.0790621178
 C          3.6119025883        0.8219824997       -0.7138909800
 C          4.9971861859        0.8253447927       -0.7084027011
 N          5.6972487305        1.8589086549       -1.3437219294
 C          5.4342820716        3.2100558668       -1.2128426412
 C          4.4818854312        3.8573251747       -0.4361281993
 C          4.4525650325        5.2393299268       -0.4738495857
 C          5.3499227261        5.9668934719       -1.2521028140
 C          6.3141609385        5.3281156905       -2.0103979490
 C          6.3621762428        3.9416701326       -1.9906842373
 C          7.2141596782        2.9745525991       -2.6300495185
 C          8.2789212098        3.0782041290       -3.5132986025
 C          8.8755365378        1.9172513935       -3.9709230832
 C          8.4085300308        0.6672453511       -3.5722742335
 C          7.3490547465        0.5395701063       -2.6928836279
 C          6.7658035270        1.7018077007       -2.2047393646
 C          5.7005327747       -0.1984660355       -0.0740016316
 C          4.9937276770       -1.2267559203        0.5463290384
 N          5.6941378570       -2.2551353557        1.1942309398
 C          6.6946606391       -2.0865645626        2.1310467238
 C          7.2186308481       -0.9173381089        2.6660982270
 C          8.2148952038       -1.0330997583        3.6176268479
 C          8.6762034437       -2.2778569554        4.0399352343
 C          8.1396885605       -3.4456796174        3.5304824437
 C          7.1389339109       -3.3548176482        2.5731622518
 C          6.3604065261       -4.3315031158        1.8601709291
 C          6.3435925849       -5.7193410833        1.8515696539
 C          5.4594451271       -6.3655639843        1.0078407262
 C          4.6118183813       -5.6451673594        0.1690493590
 C          4.6108489014       -4.2627015737        0.1599459615
 C          5.4784426255       -3.6080698135        1.0238001550
 C          3.6077670159       -1.2311296965        0.5417382053
 C          0.7222382445        1.0428154732       -0.0466472202
 N          1.2369859062        2.2698045092       -0.0733382385
 S          0.0071363646        3.3630242016       -0.0047940415
 N         -1.2280635865        2.2760420970        0.0666700609
 C         -0.7193322007        1.0464788033        0.0431263474
 C         -3.6098077895        0.8412719054        0.7120113938
 C         -4.9950737043        0.8513095274        0.7073371544
 N         -5.6894821460        1.8892407500        1.3417406837
 C         -6.7567320790        1.7385274641        2.2055304666
 C         -7.3454570171        0.5798293282        2.6955219935
 C         -8.4018276496        0.7138923848        3.5776923444
 C         -8.8605380760        1.9666808418        3.9772061943
 C         -8.2584797434        3.1240317339        3.5175791884
 C         -7.1966795247        3.0139596636        2.6315623811
 C         -6.3407639348        3.9759839065        1.9897590689
 C         -6.2845381034        5.3621191485        2.0091230329
 C         -5.3184566979        5.9950807886        1.2482927269
 C         -4.4273856808        5.2621394557        0.4678621947
 C         -4.4649250277        3.8803287721        0.4304781805
 C         -5.4190798466        3.2388061755        1.2098064429
 C         -5.7037376486       -0.1703171123        0.0753422257
 H         -9.4687575442       -2.2957663902       -4.7798541074
 H         -8.6435919231       -0.1083133562       -4.0473024692
 H         -6.8571588954        0.0784820952       -2.3620810645
 H         -8.5071245092       -4.3804213677       -3.8600914619
 H         -7.0419296282       -6.2522496152       -2.4711790941
 H         -5.4650904822       -7.4205419948       -0.9669283160
 H         -3.9747779492       -6.1557988991        0.5099994510
 H         -3.9848199053       -3.6894593930        0.5176043488
 H         -3.0963921550       -1.9962444480       -1.0704605192
 H         -1.2115992270       -2.3015700914        0.0324248676
 H          1.1979592688       -2.3075940777       -0.0275518998
 H          3.0742301593        1.5999924618       -1.2287776376
 H          3.7784955864        3.3080887724        0.1698888798
 H          3.7141560981        5.7638794156        0.1143243940
 H          5.2919200359        7.0453045594       -1.2573014827
 H          7.0168039286        5.8925991867       -2.6045201523
 H          8.6281667054        4.0462521450       -3.8389316711
 H          9.7071228403        1.9766474340       -4.6572457955
 H          8.8800279315       -0.2229003694       -3.9618957374
 H          6.9815905253       -0.4351157596       -2.4106846083
 H          6.7786785620       -0.1934048865       -0.0570340914
 H          6.8541793014        0.0519646100        2.3616259803
 H          8.6410043368       -0.1378179482        4.0460102144
 H          9.4574250349       -2.3267276294        4.7839553310
 H          8.4859724329       -4.4097938301        3.8709157336
 H          7.0114062021       -6.2791163719        2.4887651661
 H          5.4286111171       -7.4449235199        0.9888500947
 H          3.9429836631       -6.1780158978       -0.4909282802
 H          3.9638608353       -3.7118343929       -0.5059093165
 H          3.0838266333       -2.0089461109        1.0748380078
 H         -3.0681444544        1.6177639651        1.2250000741
 H         -6.9844203371       -0.3970600055        2.4126693806
 H         -8.8774310615       -0.1734032770        3.9688182658
 H         -9.6898408860        2.0310975292        4.6658183841
 H         -8.6012900042        4.0941758258        3.8438045636
 H         -6.9822994971        5.9308413300        2.6049562163
 H         -5.2540622251        7.0731243517        1.2532245662
 H         -3.6873983538        5.7822530862       -0.1222669717
 H         -3.7662953531        3.3268435762       -0.1771809878
 H         -6.7818582459       -0.1600591154        0.0588116440
