  117
 
 C         -8.4992331417       -7.1055466675        3.1130492638
 C         -7.4104488994       -6.6119154035        2.2074747671
 C         -6.6715152540       -5.4823634266        2.5774573912
 C         -5.6615127735       -4.9731587846        1.7871725363
 C         -5.3964183462       -5.6138432381        0.5848986992
 C         -6.1086850045       -6.7736915359        0.2057308148
 C         -7.1196398357       -7.2638854176        1.0211950858
 C         -5.5416132107       -7.2081520380       -1.0411974167
 C         -5.8074895412       -8.2635710570       -1.9028084626
 C         -5.0501214593       -8.3869208997       -3.0516167592
 C         -4.0432641016       -7.4716045011       -3.3518759862
 C         -3.7602102245       -6.4112409715       -2.5125283351
 C         -4.5101684032       -6.2910149930       -1.3516197437
 N         -4.4455103794       -5.3275976569       -0.3693296969
 C         -3.5495337849       -4.2436608915       -0.3467766551
 C         -2.1828259270       -4.4996368086       -0.2691238938
 C         -1.2792230622       -3.4601664323       -0.2369785409
 C         -1.7374030259       -2.1449316315       -0.2786034165
 C         -0.7902752631       -1.0306163028       -0.2303303661
 N          0.4993281725       -1.3091570070       -0.1855607954
 C          1.3736341779       -0.2554789676       -0.1261448480
 C          2.7800060118       -0.5247254223       -0.0780661289
 C          3.2560464324       -1.8448513550       -0.0982425741
 C          4.6072592999       -2.0891501863       -0.0652769310
 C          5.5174845465       -1.0336386445       -0.0098486977
 N          6.8967859362       -1.3200560824        0.0148250099
 C          7.8079299316       -1.0006449120       -0.9635664649
 C          7.5985131642       -0.3848875234       -2.1900629418
 C          8.6964386143       -0.1877603315       -3.0054572075
 C          9.9703630338       -0.5994661944       -2.6195146799
 C         10.1796387139       -1.2370846628       -1.4107222285
 C          9.0935946202       -1.4472123681       -0.5735587839
 C          8.9295528582       -2.0800371917        0.7068494788
 C          9.8005136282       -2.7025436473        1.5892711950
 C          9.3075156598       -3.2226935399        2.7754429668
 C         10.2150852952       -3.9077698898        3.7525420506
 C          7.9437588635       -3.1082769798        3.0714893570
 C          7.0550374408       -2.4930166726        2.2146378478
 C          7.5544499709       -1.9839209732        1.0231058842
 C          5.0650105121        0.2938521292        0.0439194851
 C          6.0358087814        1.4281545688        0.1818184686
 C          3.7066569339        0.5259853298        0.0003534885
 N          0.9320407098        0.9913133615       -0.1099845941
 C         -0.3685353253        1.2293770415       -0.1700637479
 C         -0.8568383638        2.5760137330       -0.1636631955
 C         -2.2352449825        2.8368714422       -0.2090849137
 C         -2.6904528801        4.1327436347       -0.2135502237
 C         -1.7927027334        5.1994352520       -0.1737415411
 N         -2.2930211380        6.5167784845       -0.1880503249
 C         -2.1203324991        7.4371269009       -1.1941481475
 C         -1.4769640786        7.2909822955       -2.4156290207
 C         -1.4551021627        8.3811488720       -3.2642666433
 C         -2.0639416196        9.5848979711       -2.9153604789
 C         -2.7273914472        9.7273940229       -1.7107891950
 C         -2.7639426153        8.6475881531       -0.8406196413
 C         -3.3624796753        8.4248403809        0.4473079231
 C         -4.1126903220        9.2137857363        1.3072468312
 C         -4.5471097111        8.6816826619        2.5108423911
 C         -5.3627343350        9.5008349909        3.4656136400
 C         -4.2203279388        7.3621016998        2.8462777396
 C         -3.4748126752        6.5550733720        2.0122809358
 C         -3.0512554547        7.0920553827        0.8037427401
 C         -0.4111471091        4.9641868317       -0.0980525649
 C          0.5528784924        6.1066180144        0.0180461020
 C          0.0332937582        3.6591910402       -0.1013481763
 N         -1.2696769552        0.1987313754       -0.2379708223
 C         -3.1037225345       -1.8967173215       -0.3771660405
 C         -4.0251829358       -2.9287432436       -0.4235730480
 C         -5.4866036254       -2.6429033319       -0.5877198835
 H         -8.9677413260       -7.9985454121        2.7075052927
 H         -9.2641291669       -6.3399041396        3.2401412230
 H         -8.0982629074       -7.3403944261        4.0984810144
 H         -6.8995607948       -5.0002559464        3.5173500991
 H         -5.0842793444       -4.1164372098        2.1018769224
 H         -7.6679162827       -8.1487359036        0.7329719372
 H         -6.5916568056       -8.9704538338       -1.6769852508
 H         -5.2404623163       -9.2026085911       -3.7332217884
 H         -3.4734198666       -7.5929977369       -4.2612242977
 H         -2.9847340082       -5.6982057085       -2.7498777931
 H         -1.8455202055       -5.5250324579       -0.2250667796
 H         -0.2186676250       -3.6443375839       -0.1714995038
 H          2.5445064762       -2.6537214055       -0.1475833593
 H          4.9856807097       -3.1011323232       -0.0923276975
 H          6.6078656684       -0.0866938100       -2.4994679525
 H          8.5645455098        0.2909770176       -3.9646033792
 H         10.8038559089       -0.4253767815       -3.2836994909
 H         11.1657591821       -1.5700433208       -1.1237379516
 H         10.8515809661       -2.7791468743        1.3523421058
 H         11.2436427914       -3.8994240930        3.4012042476
 H          9.9059956451       -4.9427745729        3.8964175719
 H         10.1744188879       -3.4124302078        4.7220877378
 H          7.5815287544       -3.5159061523        4.0043023771
 H          6.0068454402       -2.4066901213        2.4585247445
 H          6.5148624851        1.6521713258       -0.7712185198
 H          5.5229760067        2.3231325040        0.5245905513
 H          6.8209904297        1.1771417992        0.8938604905
 H          3.3272703375        1.5357325171        0.0404502876
 H         -2.9207516578        2.0051785153       -0.2455287229
 H         -3.7491230889        4.3456653673       -0.2582684721
 H         -1.0242355700        6.3514138186       -2.6955300804
 H         -0.9599946919        8.2979406111       -4.2205530683
 H         -2.0234365122       10.4148688352       -3.6050510259
 H         -3.2120458952       10.6568187712       -1.4520319109
 H         -4.3533583493       10.2322405868        1.0396900202
 H         -6.3322694611        9.0333231824        3.6353123089
 H         -4.8588298705        9.5768336362        4.4286582877
 H         -5.5247905300       10.5036063100        3.0787815481
 H         -4.5647774311        6.9689351090        3.7919617715
 H         -3.2252934823        5.5409999555        2.2862733618
 H          1.5183031936        5.7511648504        0.3687809664
 H          0.1784567647        6.8555512801        0.7148502276
 H          0.6973771246        6.5960856272       -0.9450560010
 H          1.0897433253        3.4456339389       -0.0428823474
 H         -3.4353405460       -0.8708420185       -0.4324794411
 H         -6.0044632484       -2.6904674469        0.3700713351
 H         -5.9496067673       -3.3742014087       -1.2483707219
 H         -5.6308784680       -1.6490833614       -1.0036984257
