  128
 
 O          6.8142893834       -2.5149672495        0.6361015829
 P          7.2718374900       -1.2490381657        1.2199560476
 C          7.7715028221        0.0013366859       -0.0012769885
 C          8.1875485315       -0.4673895435       -1.2382752754
 C          8.6513051205        0.4179495896       -2.1939948648
 C          8.7172667744        1.7707685140       -1.9044021287
 C          8.2933604151        2.2410220502       -0.6708332850
 C          7.8117622300        1.3601218058        0.2804021872
 C          8.7299638414       -1.4509683602        2.2926845643
 C          9.1283758362       -2.7511434231        2.5662270290
 C         10.2256963896       -2.9858648271        3.3755504505
 C         10.9272193351       -1.9179889804        3.9101460417
 C         10.5339731274       -0.6176554202        3.6327661807
 C          9.4377648240       -0.3805929393        2.8240888323
 C          6.0171611616       -0.4444132518        2.2614320268
 C          6.0928629373       -0.2635478481        3.6414356911
 C          5.0108997422        0.2367708034        4.3585902702
 C          3.8126920388        0.5496218583        3.7443838710
 C          3.7085291518        0.3682078995        2.3652685145
 C          4.8230570353       -0.1101330156        1.6485140551
 O          4.5629360880       -0.2152601418        0.3202223046
 C          3.2651788081        0.1502964965        0.1588549625
 C          2.5338156233        0.1407665227       -1.0185885433
 P          3.1649704963       -0.3146161645       -2.6609824060
 O          2.0845442147       -0.7168759141       -3.5731994729
 C          4.3970550275       -1.6264488316       -2.4051858837
 C          4.0901229831       -2.6654656427       -1.5390203419
 C          4.9507014529       -3.7399478589       -1.4216499088
 C          6.1066576309       -3.7838495053       -2.1830332039
 C          6.4041799685       -2.7536456328       -3.0590930911
 C          5.5506131422       -1.6701661606       -3.1711369251
 C          4.0514753307        1.1694937969       -3.2237185040
 C          5.0810324676        1.7459406678       -2.4911379054
 C          5.6642452794        2.9145050725       -2.9440899873
 C          5.2332338254        3.4999720511       -4.1249875557
 C          4.2115476916        2.9198023827       -4.8586608469
 C          3.6159627383        1.7577440016       -4.4028059414
 C          1.1965191161        0.5166381750       -0.9419209157
 C          0.5895210522        0.8983903834        0.2582082734
 C         -0.8349671252        1.2481475029        0.2828425098
 C         -1.7477665258        0.5640123203       -0.5205389197
 C         -3.0926058385        0.8653914114       -0.4752064719
 C         -3.5723595252        1.8568805991        0.3761731283
 C         -5.0429577360        2.2038765324        0.3855723250
 C         -5.9322120606        0.9952969030        0.2537672788
 C         -5.5934093399       -0.2060411533        0.8960824224
 C         -6.4150776590       -1.3001428837        0.8346898571
 C         -7.6415692619       -1.2316881416        0.1430855299
 N         -8.4686905215       -2.3331046793        0.0708786860
 C         -9.8436474815       -2.3259731075        0.2405718536
 C        -10.6796444554       -1.2821362153        0.5911655364
 C        -12.0409973770       -1.5538091452        0.7330492681
 C        -12.5345132281       -2.8423121654        0.5387209110
 C        -11.6994965046       -3.9024082280        0.2235631007
 C        -10.3324368600       -3.6583603951        0.0850712267
 C         -9.2037324579       -4.4845507979       -0.1787437587
 C         -9.0389533119       -5.8476042275       -0.4278248694
 C         -7.7665643830       -6.3232998453       -0.7042978260
 C         -6.6624883713       -5.4754173298       -0.7525716976
 C         -6.7997891731       -4.1102160375       -0.4982661042
 C         -8.0589190405       -3.6320522927       -0.1857765512
 C         -8.0012775659       -0.0160898660       -0.4724969547
 C         -7.1599789751        1.0654285860       -0.4185825553
 C         -5.5078700584        2.9207713691        1.6420593469
 C         -5.5249092297        2.4595540627        2.9406385377
 C         -6.0227854719        3.2890477458        3.9357477818
 C         -6.5108999913        4.5541847594        3.6289973129
 C         -6.5062435646        5.0193529996        2.3266930901
 C         -6.0010223892        4.2002402615        1.3264116016
 C         -5.8559518144        4.4156825886       -0.0972874432
 C         -6.1650022204        5.5123863101       -0.8904842825
 C         -5.9126563805        5.4413158008       -2.2493441511
 C         -5.3579639545        4.3005139478       -2.8125734185
 C         -5.0439435050        3.1990628547       -2.0246348084
 C         -5.3004009146        3.2608413288       -0.6737124386
 C         -2.6637146666        2.5609563255        1.1572036914
 C         -1.3176898641        2.2573448933        1.1159263237
 C          1.3388179033        0.9147864234        1.4335434370
 C          2.6756533738        0.5313077917        1.3850109289
 H          8.1278074674       -1.5283072851       -1.4318940680
 H          8.9695304839        0.0558861702       -3.1605880440
 H          9.0939294307        2.4625057334       -2.6440356102
 H          8.3395368707        3.2982571290       -0.4490851604
 H          7.4583869987        1.7246836765        1.2357572781
 H          8.5639330796       -3.5641606890        2.1328982653
 H         10.5345249320       -3.9985784784        3.5898203748
 H         11.7843142428       -2.0968206421        4.5428927317
 H         11.0855181553        0.2130406586        4.0490209770
 H          9.1319420210        0.6316111504        2.6036635424
 H          7.0055307055       -0.5246325358        4.1566217741
 H          5.1098051521        0.3677028397        5.4262951269
 H          2.9732072903        0.9171569809        4.3137626384
 H          3.1755652290       -2.6204942605       -0.9616049018
 H          4.7253802992       -4.5417679077       -0.7349514088
 H          6.7800173145       -4.6230776376       -2.0894616505
 H          7.3031743004       -2.7945913527       -3.6587729608
 H          5.7741933158       -0.8561811546       -3.8487018206
 H          5.4226663241        1.2752514995       -1.5805185528
 H          6.4581108142        3.3732050813       -2.3743064225
 H          5.6960486870        4.4125545106       -4.4722753957
 H          3.8782840582        3.3757227579       -5.7797078868
 H          2.8111703423        1.2850129751       -4.9473443660
 H          0.6305596932        0.5076160314       -1.8615822240
 H         -1.3995967447       -0.2261702469       -1.1682836113
 H         -3.7837518271        0.3163314849       -1.0989477110
 H         -4.6660338651       -0.2673048276        1.4461585309
 H         -6.1612808188       -2.2054578422        1.3648293660
 H        -10.2992626991       -0.2891015794        0.7743579721
 H        -12.7141683542       -0.7563641532        1.0038604662
 H        -13.5941435647       -3.0192730279        0.6516699554
 H        -12.0922499057       -4.8985702719        0.0937425646
 H         -9.8882778723       -6.5123206637       -0.4117326025
 H         -7.6270728415       -7.3759880676       -0.9021549471
 H         -5.6904479595       -5.8725975324       -0.9966617631
 H         -5.9458505109       -3.4545136098       -0.5684743464
 H         -8.9152086793        0.0320857711       -1.0445919974
 H         -7.4361799302        1.9804961864       -0.9205662271
 H         -5.1508922964        1.4764726124        3.1861054968
 H         -6.0319773124        2.9473250430        4.9600981779
 H         -6.8990574761        5.1791515304        4.4200003286
 H         -6.8883180663        6.0014005706        2.0907221165
 H         -6.5928132434        6.4029491488       -0.4548219425
 H         -6.1474352919        6.2854222543       -2.8813992034
 H         -5.1656958754        4.2676550466       -3.8745613606
 H         -4.6080943860        2.3161812098       -2.4680066802
 H         -3.0159693188        3.3504744503        1.8052042763
 H         -0.6267688954        2.8240796998        1.7223803441
 H          0.8849258105        1.1753814615        2.3768108457
