46
 xtb: 6.7.1 (edcfbbe)
N           -8.14104172665560       -0.00014389346185        0.00010621243175
C           -6.99354287571996       -0.00008120669364       -0.00010390178786
C           -5.57987819633394       -0.00004085282423       -0.00002982088895
C           -4.88447081757013        0.00327669619926       -1.21097924568827
C           -3.50369730503283        0.00298622015345       -1.20628433699250
C           -2.80894153066926        0.00003256226004        0.00000583929643
N           -1.38959355620411        0.00003967859156        0.00000847579152
C           -0.70321413359475        1.21402523518613        0.01042890095309
C           -1.38105524991871        2.42258030117470        0.01505720532789
C           -0.68851263149049        3.62823675568022        0.01913075244969
C            0.68853131897133        3.62823282290334        0.01593060872590
C            1.38106795461210        2.42257241780185        0.01080229206130
C            0.70322182620871        1.21402039971264        0.01168583589112
N            1.38959307204506        0.00002966751212       -0.00012547070611
C            2.80894144643322        0.00000743383023       -0.00007301190030
C            3.50367051452372        0.08111139291723        1.20623682010399
C            4.88444588435435        0.07918599073645        1.21096397167725
C            5.57987924913551       -0.00006298978947        0.00002510722466
C            6.99354393328083       -0.00009765700006        0.00008084004155
N            8.14103812682212       -0.00016724239590        0.00010390262865
C            4.88452740767544       -0.07927297930440       -1.21096220248081
C            3.50375121263670       -0.08112965464795       -1.20633327309972
C            0.70321311817972       -1.21395537372764       -0.01177806006775
C            1.38105459595273       -2.42250971293521       -0.01089196762822
C            0.68851266744176       -3.62816622426069       -0.01589793388124
C           -0.68853170299503       -3.62816237048225       -0.01898231522936
C           -1.38106777288606       -2.42250197279635       -0.01491224447879
C           -0.70322148108867       -1.21395065236113       -0.01040087278153
C           -3.50372374655186       -0.00295004874837        1.20628196885833
C           -4.88450111591760       -0.00331655528049        1.21094302726347
H           -5.43051630920359        0.00169024961319       -2.14249458902620
H           -2.95458626886383        0.00149527453027       -2.13579409195902
H           -2.46023550508444        2.42863161856108        0.00422631823953
H           -1.23974385095934        4.55612228434771        0.00658052592026
H            1.23976161410188        4.55611643335552        0.00451788603851
H            2.46024474775562        2.42862065975186        0.00123347077868
H            2.95454933460782        0.04166658728244        2.13576587186251
H            5.43047891042963        0.03964571843570        2.14251124526342
H            5.43060906237145       -0.03977411704803       -2.14245230031943
H            2.95467946361774       -0.04163503456920       -2.13586096557692
H            2.46023487308475       -2.42856384924442       -0.00146327686116
H            1.23974462494659       -4.55605322419040       -0.00459887322909
H           -1.23976271366214       -4.55604739164648       -0.00642734481953
H           -2.46024449597916       -2.42855299403708       -0.00402420575022
H           -2.95463758760262       -0.00143492729930        2.13582857990731
H           -5.43057408998324       -0.00175823050460        2.14246508789489
