  91
 
 N        -10.1118738357       -7.0331573828       -0.6782194365
 C         -9.1619235684       -6.3878752525       -0.6558744685
 C         -7.9948205894       -5.5961706692       -0.6272113941
 C         -7.8666461724       -4.5708804720        0.3130264297
 C         -6.7204399203       -3.8051969219        0.3394183574
 C         -5.6787365831       -4.0398097703       -0.5604848330
 C         -4.4527332709       -3.2313518338       -0.5129151226
 C         -3.1997029704       -3.8413685960       -0.6745108469
 C         -2.0577006022       -3.0888168783       -0.5942549118
 C         -2.1269364587       -1.7099418248       -0.3620988628
 C         -3.3767372242       -1.0624143066       -0.2236868773
 C         -4.5216407342       -1.8656819498       -0.2959779313
 C         -3.4349934167        0.3764524787       -0.0209168038
 C         -4.6554937014        1.0581770777        0.0323318332
 C         -4.7396743814        2.4312746078        0.1855471398
 C         -6.0471965746        3.0980779502        0.2322457701
 C         -6.2486327436        4.3154226163       -0.4213484343
 C         -7.4748768758        4.9446977247       -0.3851943086
 C         -8.5330997552        4.3636036723        0.3178555367
 C         -9.7889426886        5.0046540209        0.3613522042
 N        -10.8101077179        5.5290665483        0.3974133736
 C         -8.3430958312        3.1477954061        0.9791615453
 C         -7.1128885926        2.5272119846        0.9311738817
 C         -3.5555322738        3.1733196518        0.2787771926
 C         -2.3405020500        2.5402650913        0.2436056612
 C         -2.2452982778        1.1464440732        0.1102776639
 C         -1.0105857766        0.4433388330        0.0585147101
 C         -0.9522212866       -0.9211578812       -0.2271182072
 N          0.3410045223       -1.3310727503       -0.3061987232
 C          1.0718847744       -0.2697379160       -0.0603688215
 C          2.5242137127       -0.2984844221       -0.0351758647
 C          3.1870838460       -1.1389963349       -0.9327620117
 C          4.5612735870       -1.2180895399       -0.9450619067
 C          5.3228028507       -0.4643286534       -0.0472999440
 N          6.7144504935       -0.5391411828       -0.0568751319
 C          7.4033244424       -0.6811129946       -1.2700004124
 C          8.5351232589       -1.4916288355       -1.3511889115
 C          9.2172601926       -1.6162141884       -2.5465381025
 C          8.7801163606       -0.9459844405       -3.6777983250
 C          7.6532389477       -0.1431255356       -3.6033758161
 C          6.9697283518       -0.0053157348       -2.4104452981
 C          7.4312754246       -0.4835579023        1.1472806684
 C          8.6460512475        0.1976658162        1.2158985796
 C          9.3556242530        0.2370598189        2.4011148189
 C          8.8645948786       -0.3908985210        3.5345312329
 C          7.6550337954       -1.0642102450        3.4727539058
 C          6.9426772470       -1.1168206207        2.2898901345
 C          4.6598376996        0.3582735743        0.8664544299
 C          3.2837452585        0.4383137766        0.8734220085
 N          0.3008923423        0.8469932257        0.1746828304
 C          0.8030057119        2.1342812271        0.4673357143
 C          0.5731963789        2.7037934942        1.7164285853
 C          1.0889183750        3.9548387513        2.0026501221
 C          1.8356419297        4.6346535565        1.0531795258
 C          2.0675289346        4.0628885146       -0.1870022809
 C          1.5536224459        2.8128551167       -0.4849228325
 C         -5.8194922293       -5.0664025250       -1.4963471074
 C         -6.9616558092       -5.8378232258       -1.5361110128
 H         -8.6663983278       -4.3894374541        1.0164488306
 H         -6.6173498852       -3.0292435851        1.0831194214
 H         -3.1393467662       -4.9083595702       -0.8283511598
 H         -1.0799160243       -3.5348693851       -0.6930707247
 H         -5.5001742707       -1.4236071161       -0.1999410963
 H         -5.5764221358        0.5112147177       -0.0865011441
 H         -5.4397567768        4.7608210979       -0.9807082323
 H         -7.6274242747        5.8833370805       -0.8978839455
 H         -9.1625201807        2.7047243747        1.5263844187
 H         -6.9666303413        1.5972116743        1.4597937192
 H         -3.5990087963        4.2452495594        0.3996180747
 H         -1.4389442368        3.1274984693        0.3084474842
 H          2.5993684051       -1.7325492639       -1.6159927174
 H          5.0595539987       -1.8717459029       -1.6456070405
 H          8.8730668057       -2.0223454766       -0.4730604605
 H         10.0920598174       -2.2481831776       -2.5962050514
 H          9.3141132533       -1.0481126301       -4.6105716172
 H          7.3084011217        0.3877736174       -4.4788129755
 H          6.0973828093        0.6293586946       -2.3520854735
 H          9.0277077914        0.6936977592        0.3353746569
 H         10.2953855298        0.7683805826        2.4411376163
 H          9.4209881079       -0.3569631902        4.4591668472
 H          7.2671767555       -1.5619685484        4.3496931793
 H          6.0055816692       -1.6523988497        2.2413190027
 H          5.2342976305        0.9370109760        1.5744632110
 H          2.8005447409        1.0692462586        1.6034582493
 H         -0.0086492159        2.1630429413        2.4491797659
 H          0.9094604114        4.3966928643        2.9711775747
 H          2.2376143136        5.6099815355        1.2816112179
 H          2.6488331472        4.5907218181       -0.9277387545
 H          1.7290240554        2.3565021717       -1.4480132585
 H         -5.0304735355       -5.2485199113       -2.2103867707
 H         -7.0665099469       -6.6288154327       -2.2644997617
