  120
 
 C         -2.5659273377       -5.8733633308       -1.2917589569
 C         -1.4387616249       -4.9389815832       -0.9744220562
 C         -0.1323390701       -5.4359317635       -0.8827138849
 C          0.9350390749       -4.6003289837       -0.5958482578
 C          0.6831816406       -3.2618538492       -0.3530653080
 C         -0.6397501725       -2.7225255330       -0.4657767506
 C         -1.6838206723       -3.5927676703       -0.7918078356
 C         -0.5405096909       -1.3162731134       -0.2997797817
 C         -1.4456930773       -0.2195557870       -0.1995472138
 C         -0.8482813934        1.0306975923       -0.1835586208
 C          0.5391789288        1.3155299413       -0.3040892876
 C          1.4441670122        0.2192009936       -0.1977060308
 C          0.8467291246       -1.0309796549       -0.1778191730
 N          1.5525178135       -2.2165537726       -0.1048554486
 C          2.8621613304       -2.2112863927        0.3273449392
 C          3.4897238413       -3.3488853840        0.8387914844
 C          4.8078542184       -3.3181246257        1.2407903486
 C          5.5539884349       -2.1467601455        1.1606994980
 C          7.0173971724       -2.0526350875        1.5530428426
 C          7.8252352124       -1.5600718127        0.3437113932
 C          7.1611223178       -1.0581494465        2.7141706119
 C          7.5931069759       -3.3995467277        1.9979586768
 C          4.8964972423       -1.0035043793        0.7209694669
 C          3.5693989737       -0.9991705786        0.3286347208
 C          2.9369157146        0.3153395155       -0.1083561885
 C          3.4329401871        1.4048732461        0.8216924052
 C          3.0684107933        1.6440731196        2.1252404165
 C          3.7070025809        2.6691542586        2.8138260305
 C          4.7017726707        3.4198159947        2.2066886297
 C          5.0742413188        3.1810739284        0.8936039925
 C          4.4301414728        2.1716996033        0.1961039052
 C          4.5485802475        1.7332544522       -1.1863148565
 C          5.3406021540        2.1943874854       -2.2260576545
 C          5.1975167264        1.6149728220       -3.4762836089
 C          4.2791331614        0.5982974686       -3.6903912616
 C          3.4856726025        0.1257321717       -2.6516026632
 C          3.6265762102        0.6979900104       -1.4091921644
 C          0.6387517169        2.7210652743       -0.4755986385
 C          1.6834543167        3.5900202235       -0.8032686750
 C          1.4387216835        4.9354293912       -0.9917811832
 C          2.5660737947        5.8687811778       -1.3115128678
 C          0.1321052186        5.4327873591       -0.9044086050
 C         -0.9357811777        4.5983708633       -0.6160642441
 C         -0.6843652954        3.2608775642       -0.3674694003
 N         -1.5541960923        2.2165652121       -0.1166674317
 C         -2.8646606116        2.2130272890        0.3130986414
 C         -3.4931310430        3.3526258617        0.8189369599
 C         -4.8120593598        3.3234780732        1.2184526782
 C         -5.5581291942        2.1518740703        1.1413254707
 C         -7.0224128173        2.0594150960        1.5308212718
 C         -7.5986905376        3.4078848560        1.9702548344
 C         -7.8276793611        1.5633121715        0.3212183688
 C         -7.1690889056        1.0686229003        2.6947332222
 C         -4.8998412152        1.0068825573        0.7073208240
 C         -3.5719471964        1.0009499880        0.3177050365
 C         -2.9386473445       -0.3153309335       -0.1127884937
 C         -3.4365933685       -1.4011006261        0.8206413870
 C         -3.0747521082       -1.6350609074        2.1258645213
 C         -3.7147847237       -2.6573527751        2.8173027223
 C         -4.7083491244       -3.4104166277        2.2111289226
 C         -5.0781230153       -3.1769897369        0.8963532332
 C         -4.4325596139       -2.1704293105        0.1960482112
 C         -4.5481370066       -1.7375932766       -1.1882809263
 C         -5.3380149985       -2.2029231910       -2.2278497451
 C         -5.1923487708       -1.6285533131       -3.4800771633
 C         -4.2735379838       -0.6127139121       -3.6964230521
 C         -3.4822111379       -0.1359677262       -2.6578853751
 C         -3.6256531397       -0.7031919103       -1.4134835584
 H         -3.4511023333       -5.3210336160       -1.5975838870
 H         -2.2858304591       -6.5637314310       -2.0855593405
 H         -2.8184395404       -6.4636982964       -0.4100428142
 H          0.0504638126       -6.4831385275       -1.0707433109
 H          1.9367676565       -4.9982978978       -0.6161370706
 H         -2.6783895534       -3.2168988949       -0.9377888189
 H          2.9252517233       -4.2573912225        0.9606942107
 H          5.2420296079       -4.2257818553        1.6262784173
 H          7.4941647263       -0.5776587063        0.0185967932
 H          7.7118154121       -2.2497571792       -0.4901829654
 H          8.8808195568       -1.4974131050        0.5993923010
 H          8.2030357557       -0.9874635984        3.0190400692
 H          6.5729544240       -1.3893847079        3.5675330845
 H          6.8196302643       -0.0658523904        2.4319983679
 H          8.6456286837       -3.2800999501        2.2465236366
 H          7.5168137680       -4.1381493423        1.2033127194
 H          7.0805211260       -3.7717708791        2.8819272357
 H          5.4368182244       -0.0710981480        0.6867865881
 H          2.2995668386        1.0532482860        2.6015526567
 H          3.4271839358        2.8806237792        3.8352832266
 H          5.1904554579        4.2057036279        2.7643317546
 H          5.8460518482        3.7728149888        0.4234084858
 H          6.0521865220        2.9914753855       -2.0663318202
 H          5.8066694526        1.9632127669       -4.2978403200
 H          4.1800947110        0.1668104072       -4.6754438727
 H          2.7714932863       -0.6676034903       -2.8192121890
 H          2.6782607562        3.2135040610       -0.9459379635
 H          2.2906173991        6.5481084370       -2.1164479037
 H          2.8095818507        6.4712384523       -0.4355175647
 H          3.4551699774        5.3150994282       -1.6031299296
 H         -0.0502777009        6.4792354746       -1.0969977855
 H         -1.9374728450        4.9962512611       -0.6396671484
 H         -2.9288273567        4.2615584918        0.9384338061
 H         -5.2469227664        4.2326282865        1.5996241136
 H         -8.6517407064        3.2894928144        2.2170802627
 H         -7.0877744258        3.7828029797        2.8540526727
 H         -7.5206264670        4.1439253651        1.1734083659
 H         -7.7123244269        2.2504550322       -0.5145084055
 H         -7.4959991587        0.5798809602       -0.0001879452
 H         -8.8838323309        1.5015692022        0.5747601021
 H         -8.2116779757        0.9994250606        2.9976264779
 H         -6.8275444286        0.0752651632        2.4163903171
 H         -6.5825449350        1.4022112734        3.5482950912
 H         -5.4401604062        0.0743880009        0.6756030765
 H         -2.3068559439       -1.0423556583        2.6013676998
 H         -3.4370586209       -2.8647203961        3.8401620939
 H         -5.1982028203       -4.1940228502        2.7709608913
 H         -5.8489858439       -3.7705894719        0.4269616304
 H         -6.0499012138       -2.9993814564       -2.0663669739
 H         -5.7997910851       -1.9801098530       -4.3014926525
 H         -4.1724907692       -0.1851953563       -4.6829903544
 H         -2.7676954052        0.6566941549       -2.8272385056
