  92
 
 C         -8.7763580274       -2.0470090771        0.3765128262
 C         -7.8781494269       -0.8394354958        0.0459309722
 C         -8.7429473280        0.3926483154       -0.2836664291
 C         -7.0350816403       -1.1733327145       -1.1686462960
 C         -7.6569978029       -1.4825309974       -2.3708060603
 C         -6.9381614576       -1.7744377897       -3.5156501871
 C         -5.5540928327       -1.7478685454       -3.4735415797
 C         -4.9097769127       -1.4463538944       -2.2933408356
 C         -5.6344342807       -1.1694351253       -1.1275355134
 N         -4.9582436974       -0.8899400917        0.0462641396
 C         -3.5347421823       -0.9152456289        0.0419023531
 C         -2.8569798913       -2.1409262156        0.1096933960
 C         -1.4855652133       -2.1683226421        0.0996350031
 C         -0.7204186644       -0.9919015935        0.0284171935
 C          0.7192265486       -0.9920092648        0.0190242964
 C          1.4848236380       -2.1702734760        0.0232250784
 C          2.8562053120       -2.1429685393        0.0154596929
 C          3.5339770818       -0.9152385369        0.0120186666
 N          4.9570364152       -0.8903166087        0.0140248893
 C          5.6270578831       -1.1394197504        1.1985333409
 C          4.8967405851       -1.3769337065        2.3695660765
 C          5.5348343339       -1.6515040074        3.5596972864
 C          6.9184479278       -1.6884260080        3.6073513650
 C          7.6431239749       -1.4308947580        2.4580120412
 C          7.0274785491       -1.1496460753        1.2457935701
 C          7.8774946595       -0.8498239292        0.0273117138
 C          8.7443973876        0.3876864415        0.3299418132
 C          8.7734560079       -2.0679960324       -0.2686667646
 C          7.0299246767       -0.5666254755       -1.1970756163
 C          7.6496273635       -0.2708788137       -2.4038525662
 C          6.9295944172       -0.0279865758       -3.5591286963
 C          5.5466489887       -0.0932157566       -3.5227965884
 C          4.9045564683       -0.3835406901       -2.3386497048
 C          5.6295459674       -0.6088622233       -1.1620356916
 C          2.8178785082        0.2578199600        0.0041858140
 C          1.4150283247        0.2433827065       -0.0022565108
 C          0.7102309132        1.4881463249       -0.0446869570
 N          1.3703909515        2.6399821979       -0.0691044397
 C          0.7191822041        3.8085118347       -0.1291748161
 C          1.3926821971        5.0295423385       -0.1586539789
 C          0.6927166550        6.2211221533       -0.2203767757
 C         -0.6949708928        6.2197585752       -0.2549662752
 C         -1.3947762598        5.0268424365       -0.2273614866
 C         -0.7211338066        3.8070739180       -0.1653714408
 N         -1.3722708221        2.6373369834       -0.1370824333
 C         -0.7119917544        1.4869500212       -0.0747932256
 C         -1.4165365068        0.2422602683       -0.0273709374
 C         -2.8194177576        0.2562074717       -0.0259716895
 C         -5.6235892839       -0.5731212745        1.2169239935
 C         -4.8908668732       -0.3137706005        2.3816290141
 C         -5.5255720393        0.0082124711        3.5615661781
 C         -6.9083602733        0.0732272080        3.6049422405
 C         -7.6357483195       -0.1993384068        2.4608539821
 C         -7.0236607459       -0.5275280401        1.2586260134
 H         -8.1613985215       -2.9127183164        0.6164441831
 H         -9.4138664005       -1.8321734463        1.2292555365
 H         -9.4106296078       -2.2995981216       -0.4682774000
 H         -9.3657423235        0.6662152692        0.5631317070
 H         -8.1040738407        1.2393818833       -0.5288594660
 H         -9.3903098540        0.1942649836       -1.1329979040
 H         -8.7348187556       -1.4959797258       -2.4221660961
 H         -7.4540386437       -2.0127504151       -4.4334815806
 H         -4.9743373493       -1.9598284408       -4.3596333956
 H         -3.8316441254       -1.4172452517       -2.2676912216
 H         -3.4260763263       -3.0565543379        0.1688744276
 H         -0.9938922461       -3.1256172542        0.1572521832
 H          0.9936033797       -3.1295343381        0.0232720892
 H          3.4255118088       -3.0604010033        0.0135687067
 H          3.8190344346       -1.3386057433        2.3405662737
 H          4.9504451691       -1.8341291411        4.4492769059
 H          7.4293985902       -1.9066002743        4.5329109220
 H          8.7206559937       -1.4493814896        2.5137064752
 H          9.3727828972        0.6375216174       -0.5200340974
 H          9.3863342678        0.2092299580        1.1877706927
 H          8.1068196360        1.2424134982        0.5495334155
 H          8.1569397627       -2.9363568097       -0.4946337260
 H          9.4187357278       -1.8745711576       -1.1206838218
 H          9.3997988230       -2.3043883916        0.5866462458
 H          8.7269265485       -0.2284962204       -2.4502632262
 H          7.4434314989        0.2026443146       -4.4800625749
 H          4.9655781657        0.0810193489       -4.4162675208
 H          3.8273232319       -0.4377748669       -2.3180607067
 H          3.3209510019        1.2128402538       -0.0051712925
 H          2.4720030066        5.0167864448       -0.1330824111
 H          1.2326269212        7.1561014956       -0.2420033319
 H         -1.2349715268        7.1536980752       -0.3030457085
 H         -2.4740993249        5.0121145420       -0.2517229921
 H         -3.3230248446        1.2098298850       -0.0726438231
 H         -3.8136615562       -0.3668992940        2.3544137716
 H         -4.9390503452        0.2075676361        4.4461737962
 H         -7.4164725194        0.3276068266        4.5228096558
 H         -8.7127101723       -0.1544959137        2.5126548783
