130
 xtb: 6.7.1 (edcfbbe)
C           14.84244732435494        3.14568611449309        0.27326875756399
C           13.67848152686713        3.41063229148097       -0.43062595698170
C           12.68896570226350        2.45138568611063       -0.53375320822184
C           12.84767407527815        1.20850888017707        0.07999615238831
N           11.84818267838189        0.23077770252302       -0.02167582027145
C           12.20918944595500       -1.11659600394629       -0.16858718524371
C           13.29933679545010       -1.47314674522894       -0.96214798392197
C           13.65706113500618       -2.80139062553385       -1.09742489241086
C           12.93286031896013       -3.79269230778576       -0.45417893829744
C           11.84648442913405       -3.44379962779525        0.33234384062140
C           11.48655977966031       -2.11758667359569        0.48090600407810
C           10.50231935378292        0.59466985698153        0.01195833636300
C           10.06728016353853        1.65099543572900        0.81581259874413
C            8.73827361860429        2.01554840064589        0.83601260501794
C            7.79119092750013        1.33268982571815        0.07151663964393
C            6.37563626161882        1.71602581375995        0.09743264289015
C            6.01550760134264        3.08636583098315        0.16034993475668
C            4.71155325279555        3.48300136823335        0.17345442441712
C            3.67842233323393        2.52147993818492        0.12969648811904
N            2.39539803373969        2.90927132460602        0.13604566803909
C            1.46392791732958        1.97137344577211        0.09918989612220
C            0.07392991088977        2.36227256428383        0.09798238667699
C           -0.26512181951065        3.71941573759016        0.12887925793815
C           -1.57728859019159        4.12274475998861        0.12117054196930
C           -2.60320574213911        3.17104139921667        0.08497193871084
C           -4.01292841338023        3.57901651261840        0.07583300297107
C           -4.43881816654867        4.67770821659107       -0.67054843520916
C           -5.76734266116860        5.04459552352575       -0.70377180191760
C           -6.71931921620449        4.33145631453332        0.02779654830346
N           -8.06672246298288        4.69446173224600       -0.00721379813365
C           -8.42955059263586        6.04528252578885       -0.09928787720019
C           -9.51371078943666        6.43413933906019       -0.88587216570666
C           -9.87344715226856        7.76581431621466       -0.96617757514087
C           -9.15712509999175        8.72952333493656       -0.27455813728306
C           -8.07630603566523        8.34897592003042        0.50467281359921
C           -7.71433328036149        7.01877086361282        0.59808043409736
C           -9.06229978756931        3.70960719205251        0.04211810277238
C           -8.88683970985433        2.49005331200127       -0.61218613502824
C           -9.86943728879347        1.52037377295057       -0.55418494125679
C          -11.04439845307073        1.75227745076133        0.14282745521812
C          -11.22721738420226        2.96476769285053        0.78813387903074
C          -10.24538171091800        3.93612076035068        0.74546264197172
C           -6.29475578855985        3.24406427337788        0.79413370700833
C           -4.96778989671211        2.87225284938855        0.80768617295289
C           -2.26687078634237        1.82512194433773        0.05439387576006
C           -0.94183355491886        1.38576518616487        0.06110465068203
C           -0.58846340723580       -0.02822436191866        0.03008521513312
C           -1.55115989470270       -1.03908757012668        0.00847716296181
C           -1.21390085630268       -2.38483380308254       -0.01182498469949
C           -2.26649154979931       -3.40761940753753       -0.02536866536524
C           -3.41759057870750       -3.24032816018153       -0.79560129503163
C           -4.41466946513794       -4.19178381619736       -0.80164327889786
C           -4.30224093791897       -5.34206285657477       -0.01817315735732
N           -5.32227440966489       -6.29567859899188       -0.00616119990614
C           -5.01123750742762       -7.65822601098374        0.09311532258607
C           -5.81511635859553       -8.51480669899912        0.84530363602715
C           -5.50931502731734       -9.85948564382975        0.93209567747459
C           -4.39684919343217      -10.37014360475092        0.28266488260868
C           -3.59209589564653       -9.52272342999481       -0.46188093719119
C           -3.89522417546696       -8.17846546855401       -0.56256222870644
C           -6.66077725110059       -5.88944755040880       -0.08997029231141
C           -7.09077877006924       -4.73106576359302        0.55769463691783
C           -8.41004465765840       -4.33060800305709        0.46697548882514
C           -9.32268211727323       -5.07982445847518       -0.25826402713648
C           -8.90235579122860       -6.23469254455591       -0.89834361524329
C           -7.58278875749835       -6.63763998362944       -0.82185283247632
C           -3.15139497604390       -5.51545817222611        0.75314389378028
C           -2.15000668089905       -4.56783178191064        0.73987385498834
C            0.13912257630343       -2.74304878418238       -0.01148236254728
C            1.10734288958964       -1.76990986133122        0.00571241167360
C            0.76717025266854       -0.41308885694325        0.02871760822394
C            1.81101187545292        0.58518981548091        0.05605705666670
N            3.07235638431281        0.19348918202235        0.04074219156955
C            4.02665976249469        1.13911812802832        0.07299998057868
C            5.38256498926714        0.76436420501044        0.05492336162494
C            8.22958164993938        0.27083682701831       -0.72136882580790
C            9.55898430143688       -0.08916102107259       -0.75905799711980
C           14.01914733211915        0.94856471707207        0.79118550906291
C           15.00735173543118        1.91065093530230        0.88029730907132
H           15.61924147132331        3.88348514391264        0.41407610641817
H           13.55165217684587        4.37923777232074       -0.84447065339548
H           11.79404748514568        2.67364914816222       -1.05783139400322
H           13.85862097323851       -0.67754813249982       -1.48941939618000
H           14.49883486740864       -3.03458519430999       -1.77658735042407
H           13.20843864535992       -4.81856160437161       -0.65553131807786
H           11.27674211083768       -4.22129162939287        0.76411944752410
H           10.64476445253704       -1.86412891327679        1.06595940782856
H           10.77886778785718        2.16299569310271        1.44952697916274
H            8.42108552185053        2.80423261738968        1.50636147820131
H            6.80056547303152        3.82708034396374        0.19774208942591
H            4.43473203385534        4.52525786421483        0.23759858106474
H            0.53915445738469        4.43716279137528        0.17190701559772
H           -1.82240200767485        5.17300784853485        0.16973306080844
H           -3.72057481675459        5.23088227318624       -1.26144048299791
H           -6.07780109772244        5.88579817037835       -1.31021710593928
H          -10.06566759059695        5.68678535955997       -1.44486994752653
H          -10.71097356082229        8.05483752169778       -1.59256389418058
H           -9.43794274811132        9.77015449016087       -0.35107447705469
H           -7.51678375183127        9.09225557502649        1.04652305687260
H           -6.87976598347868        6.72298419881360        1.20908051859449
H           -7.97635672416409        2.31197967117806       -1.17794348446146
H           -9.71963946861707        0.58216461157612       -1.08054318314538
H          -11.81334658776976        0.99534901274299        0.16544066406772
H          -12.14030898994325        3.15398726391451        1.32165238833062
H          -10.38865962781549        4.87652753073535        1.24583200466943
H           -7.01898282797857        2.69280422894288        1.37195633177624
H           -4.66309024706365        2.03703274842864        1.41709017075076
H           -3.07054570453617        1.10871419023627       -0.00228885910019
H           -2.59829469940929       -0.78606128940176        0.03374527137921
H           -3.51970144730576       -2.36797800333664       -1.42014534763752
H           -5.29356979476399       -4.05384355463021       -1.40998186367360
H           -6.67483992354736       -8.11735799418688        1.37315479540920
H           -6.13641002844093      -10.51066253510520        1.53301993725292
H           -4.15793472870390      -11.42102085851927        0.36637624894441
H           -2.72707962924950       -9.91396066498710       -0.96964701428472
H           -3.27385495643493       -7.52390667050616       -1.14723789010364
H           -6.38170689150582       -4.15078651223698        1.14285943799181
H           -8.72678521703004       -3.43173945113701        0.98789529152104
H          -10.35400937847765       -4.76744043226610       -0.30683989030795
H           -9.60758378700316       -6.82471549856706       -1.45287991830317
H           -7.25825063463397       -7.53491224304633       -1.31672241927908
H           -3.05003084306553       -6.39681990728462        1.37384881327086
H           -1.27453247738741       -4.71094259868717        1.36025198543847
H            0.41825461305611       -3.78570596466743       -0.04945336487799
H            2.15627658114843       -2.02424262490350       -0.00474518159639
H            5.61345069216495       -0.28898364912850        0.02133285328599
H            7.52208787303747       -0.23775505002030       -1.35788952191572
H            9.88220817039998       -0.88115607202906       -1.41573131660351
H           14.14206310250972       -0.03405278744392        1.27132892811283
H           15.90684904094056        1.66653140245485        1.46601867966764
