69
 xtb: 6.7.1 (edcfbbe)
C           -5.71791456747441       -4.72848425382076        0.13437668045497
C           -4.76364253238041       -5.49613157819102        0.78372751604727
C           -3.42820593587171       -5.14459683726480        0.72223504672750
C           -3.02261545736392       -4.01364135917253        0.01318733336226
C           -1.60403597709816       -3.63405830447149       -0.05132459853409
C           -0.60437998565903       -4.60517894116580       -0.18039406787420
C            0.73084883102607       -4.23311711189361       -0.23611183010515
C            1.09793668542833       -2.90697691114149       -0.16427096718054
C            0.11139757044073       -1.91417481493711       -0.03688313271769
C            0.45736499603127       -0.52741830079121        0.04096721132194
N            1.71380628237900       -0.12287887958105        0.04287591172204
C            2.03009788783947        1.15642069837346        0.12464356265321
C            3.39964557657653        1.57617433911031        0.12219975379146
C            3.73453135921583        2.93806775295278        0.20218758737432
C            5.05747718615536        3.32492436374418        0.19148400812382
C            6.06951564965931        2.38176785880241        0.09913197230613
C            5.75964808519467        1.01895394265312        0.02057540179229
C            6.82621606555180        0.01200273657349       -0.08547270037617
C            7.93468361316261        0.23240481007995       -0.90296640737162
C            8.93395882916546       -0.71742173237975       -1.00504194088449
C            8.84659852132477       -1.90118872333790       -0.28928376723464
C            7.75111314691725       -2.12976409251540        0.52887395759048
C            6.74737785688859       -1.18439667392504        0.62733806053818
C            4.42993683932754        0.62949754003892        0.03729692795095
N            1.03630265239016        2.10346019250361        0.22113972412493
C           -0.21037959021995        1.67367342372508        0.19398661901483
C           -1.29434055434483        2.65994428756375        0.26462295146160
C           -1.02303441493009        4.00131988503238        0.52877206457105
C           -2.06452682843140        4.90821816385759        0.58979171856941
C           -3.37014791582714        4.49362981794799        0.38536634002220
C           -3.65785159837169        3.15439608349742        0.11866049295072
C           -5.04118786176787        2.70015247438063       -0.10025881331244
C           -5.92577780854646        3.45659421200318       -0.86632666758225
C           -7.22263057044416        3.02257990382370       -1.07523185003762
C           -7.65766333245000        1.83109050150959       -0.51724689642558
C           -6.78664315575361        1.07259998319847        0.24824991265928
C           -5.48756471271161        1.50107438853499        0.45309192623625
C           -2.60780602918341        2.24651365357427        0.06218168858758
N           -0.54969823992200        0.40389748012584        0.10987062963556
C           -1.23418038071391       -2.29979391095048        0.01673239269143
C           -3.99319632425229       -3.24643814459483       -0.63252089330305
C           -5.32722946182314       -3.60273245376057       -0.57399919396684
H           -6.76589413135746       -4.99316229704154        0.18785888698527
H           -5.06418645848043       -6.36857191104725        1.33197282961709
H           -2.69271154219714       -5.73862258841975        1.22519216064631
H           -0.88304980744474       -5.64391738283392       -0.28365888574184
H            1.48554474711348       -4.99357652033905       -0.36996289230122
H            2.13223281386625       -2.61105339576450       -0.23206663670526
H            2.93930283417751        3.66252236386550        0.25511142860165
H            5.30951825444853        4.37285633511883        0.25903276190301
H            7.10371164714209        2.69481145184204        0.12674114629977
H            8.01731819284897        1.14737993313256       -1.44474007180910
H            9.80526316861095       -0.53190756135000       -1.59667064115896
H            9.63785936737714       -2.63954657065790       -0.32159827655110
H            7.67361815066300       -3.04922970152155        1.11734785243724
H            5.89303465551736       -1.36267536662468        1.28412126630054
H            4.16531836967484       -0.41475532000416       -0.04558700558884
H            0.00426425858849        4.31840671890750        0.62084330153164
H           -1.85186125341537        5.95539933045270        0.73319748115798
H           -4.17416541709953        5.21071451888202        0.42320324356544
H           -5.60592328462722        4.35602767509566       -1.31217971945175
H           -7.91887876009815        3.58707989773803       -1.63212297138408
H           -8.67824845676594        1.47853824714575       -0.59808931771585
H           -7.10821945181418        0.14693231734973        0.76671492263150
H           -4.80167229656295        0.92282267332161        1.10181700107212
H           -2.79578558517164        1.20220403273854       -0.14787898705217
H           -1.97855042136959       -1.52561779913627        0.13173060258822
H           -3.70114760070806       -2.36575965544643       -1.19946466705208
H           -6.07304731476083       -2.98455406625196       -1.07277939851170
