89

C      6.494524    2.536758   -0.312125
C      5.147556    2.459237    0.458687
C      5.385146    2.763138    1.960450
C      4.203734    3.535548   -0.088054
C      4.635922    4.887921   -0.120076
C      3.791174    5.923221   -0.504156
C      2.484719    5.632359   -0.842265
C      2.041136    4.307356   -0.813485
C      2.884289    3.225333   -0.468505
N      2.418278    1.856836   -0.465790
C      1.009717    1.576596   -0.302307
C      0.062598    1.894060   -1.283300
C     -1.294907    1.601474   -1.098301
C     -1.763788    0.979934    0.072811
C     -3.202472    0.676727    0.241996
C     -3.820855    0.616813    1.477132
C     -5.173480    0.329844    1.500651
C     -5.949771    0.238261    2.754838
C     -5.393387   -0.272428    3.942582
C     -6.141395   -0.347820    5.122498
C     -7.464682    0.082907    5.139265
C     -8.042460    0.583607    3.977040
C     -7.292938    0.656853    2.799175
N     -5.873784    0.129564    0.365467
C     -5.205938    0.203675   -0.798034
C     -5.963692   -0.019022   -2.046669
C     -5.331798    0.006412   -3.305976
C     -6.047640   -0.201571   -4.489710
C     -7.417511   -0.441088   -4.442148
C     -8.070378   -0.474295   -3.213709
C     -7.350690   -0.266440   -2.032204
N     -3.893506    0.474866   -0.899386
C     -0.806384    0.656345    1.049521
C      0.551490    0.952622    0.868490
C      3.355898    0.759642   -0.278327
C      4.613123    1.026722    0.321889
C      5.400642   -0.039611    0.796193
C      4.999343   -1.364204    0.689418
C      3.820433   -1.639896   -0.011071
C      3.064963   -0.617870   -0.596164
C      2.156420   -1.284519   -1.496438
C      1.306603   -0.841832   -2.535708
C      0.448930   -1.728827   -3.190664
C      0.434242   -3.067952   -2.837935
C      1.312859   -3.553872   -1.868186
C      2.212347   -2.659641   -1.247258
N      3.219130   -2.863761   -0.311286
C      3.619931   -4.124834    0.226989
C      3.909612   -4.238341    1.593830
C      4.300140   -5.468713    2.125654
C      4.407993   -6.585467    1.298182
C      4.126190   -6.475416   -0.062701
C      3.731270   -5.248592   -0.600865
H      6.986165    3.509626   -0.207721
H      6.343167    2.359199   -1.384104
H      7.223497    1.799345    0.040233
H      4.449430    2.689488    2.529145
H      6.101072    2.073089    2.419448
H      5.785603    3.770621    2.120744
H      5.644694    5.155746    0.185919
H      4.147947    6.949060   -0.514929
H      1.799825    6.428063   -1.122713
H      1.000366    4.158670   -1.070276
H      0.378554    2.341886   -2.222300
H     -1.993980    1.857954   -1.893041
H     -3.278063    0.820876    2.390440
H     -4.370082   -0.640437    3.961353
H     -5.690512   -0.750333    6.025995
H     -8.047108    0.022455    6.054872
H     -9.077235    0.916042    3.981204
H     -7.766377    1.051080    1.901020
H     -4.260053    0.189161   -3.371926
H     -5.531278   -0.176326   -5.445902
H     -7.975162   -0.602807   -5.360708
H     -9.140018   -0.662413   -3.169240
H     -7.886448   -0.299890   -1.084268
H     -1.092648    0.145213    1.965131
H      1.258485    0.688047    1.651545
H      6.355210    0.149361    1.283398
H      5.633543   -2.154664    1.079360
H      1.326409    0.197398   -2.842947
H     -0.215298   -1.361028   -3.967936
H     -0.255844   -3.749636   -3.329098
H      1.286507   -4.607471   -1.608378
H      3.799878   -3.389919    2.265475
H      4.513532   -5.557666    3.187904
H      4.713949   -7.542365    1.713755
H      4.222460   -7.344635   -0.708794
H      3.560913   -5.181408   -1.672610
