42

N      6.539617    2.064321    1.331547
C      6.601285    1.020740    0.827518
C      6.666227   -0.267127    0.223852
C      7.945149   -0.875831    0.074291
N      8.977186   -1.391223   -0.050680
C      5.573801   -0.919363   -0.222530
C      4.184934   -0.438432   -0.168988
C      3.559031   -0.115580    1.039502
C      2.229057    0.321310    1.048580
C      1.495720    0.431235   -0.143752
C      0.101236    0.898966   -0.126476
C     -0.131557    2.282633   -0.195826
C     -1.426668    2.795094   -0.186711
C     -2.527467    1.937935   -0.107569
C     -3.831058    2.450572   -0.098941
C     -4.933241    1.598722   -0.019683
C     -4.758840    0.212396    0.053323
C     -5.860274   -0.652393    0.133568
C     -5.676163   -2.031745    0.206197
C     -4.388262   -2.563655    0.199652
C     -3.268312   -1.722638    0.120204
C     -1.972310   -2.243537    0.113383
C     -0.864835   -1.395472    0.033704
C     -1.005261    0.007274   -0.043407
C     -2.321662    0.539171   -0.035187
C     -3.448373   -0.323150    0.045994
C      2.121751    0.092732   -1.349882
C      3.445093   -0.340444   -1.352695
F      4.013976   -0.663521   -2.524339
H      5.683841   -1.885798   -0.716852
H      4.085386   -0.199181    1.988079
H      1.759539    0.575748    1.998422
H      0.707198    2.974238   -0.258697
H     -1.565699    3.872593   -0.242449
H     -4.002743    3.523535   -0.154136
H     -5.931582    2.030584   -0.015397
H     -6.873280   -0.256085    0.140084
H     -6.536942   -2.692465    0.267986
H     -4.264734   -3.642851    0.257160
H     -1.808025   -3.317321    0.170244
H      0.121894   -1.853891    0.033557
H      1.585366    0.161906   -2.292650
