121

C    -13.187742   -4.553941   -2.953996
C    -12.680322   -3.282878   -3.220011
C    -11.924862   -2.613741   -2.255073
C    -11.678718   -3.218314   -1.015681
N    -10.905815   -2.537645   -0.027718
C    -11.217549   -2.461207    1.332334
C    -12.328314   -2.926346    2.068183
C    -12.379326   -2.680776    3.443618
C    -11.367222   -1.973515    4.077816
C    -10.286170   -1.480906    3.343289
C    -10.212934   -1.713839    1.951737
C     -9.278675   -1.323856    0.948645
C     -8.081629   -0.571498    0.985684
C     -7.315950   -0.366768   -0.175470
C     -6.064985    0.408454   -0.127009
C     -5.043903    0.070227    0.766217
C     -3.845331    0.792006    0.828713
C     -3.674392    1.903058   -0.020447
C     -4.654453    2.241011   -0.954016
C     -5.856962    1.496944   -0.991824
C     -4.166059    3.338193   -1.720896
C     -4.711292    4.083832   -2.790061
C     -3.992635    5.149251   -3.336689
C     -2.748534    5.488814   -2.824086
C     -2.188196    4.765600   -1.767093
C     -2.896312    3.666065   -1.238343
N     -2.605156    2.787082   -0.191926
C     -1.404827    2.786350    0.582126
C     -1.465364    2.617451    1.966987
C     -0.288292    2.585160    2.722012
C      0.983037    2.715670    2.128370
C      2.165631    2.742959    3.011370
C      3.124221    3.754840    2.960836
C      4.214991    3.699076    3.825008
C      4.317117    2.646715    4.724556
C      3.314641    1.693274    4.728123
N      2.244370    1.721876    3.903857
C      1.022435    2.864042    0.723894
N      2.255735    2.895693    0.012431
C      2.649181    3.919968   -0.845649
C      2.034807    5.145006   -1.173034
C      2.686205    6.002674   -2.063444
C      3.921512    5.664910   -2.602304
C      4.540596    4.461461   -2.252639
C      3.902782    3.577341   -1.355357
C      4.268524    2.315693   -0.797983
C      5.404043    1.485647   -0.940771
C      5.486865    0.249924   -0.273349
C      6.677391   -0.605807   -0.414439
C      7.157163   -0.975467   -1.674660
C      8.289390   -1.786060   -1.827809
C      8.949203   -2.258417   -0.676252
C      8.520470   -1.877232    0.595664
C      7.373311   -1.059447    0.719886
C      9.420777   -2.439029    1.546867
C      9.485363   -2.391880    2.957435
C     10.486589   -3.092081    3.634281
C     11.412365   -3.846955    2.927118
C     11.371235   -3.906552    1.530881
C     10.382954   -3.168840    0.844821
N     10.089837   -3.049682   -0.516343
C     10.840168   -3.640360   -1.577042
C     10.180171   -4.270961   -2.639400
C     10.917948   -4.847778   -3.675247
C     12.311022   -4.794653   -3.656382
C     12.971229   -4.166828   -2.601041
C     12.239991   -3.590917   -1.560089
C      4.408200   -0.145719    0.525480
C      3.271198    0.655155    0.685477
C      3.229659    1.901226    0.034884
C     -0.160309    2.920969   -0.041636
C     -7.764140   -0.936126   -1.371328
C     -8.948013   -1.681520   -1.438420
C     -9.716857   -1.844374   -0.269393
C    -12.192157   -4.494261   -0.750752
C    -12.943578   -5.159191   -1.721884
H    -13.774034   -5.073469   -3.707780
H    -12.879893   -2.808273   -4.177499
H    -11.574284   -1.607504   -2.471834
H    -13.148921   -3.451606    1.589422
H    -13.228329   -3.040772    4.020380
H    -11.421412   -1.787640    5.147469
H     -9.508341   -0.910446    3.843093
H     -7.754937   -0.148386    1.932546
H     -5.162626   -0.790449    1.423311
H     -3.065811    0.467955    1.511586
H     -6.628087    1.777870   -1.705210
H     -5.692847    3.835421   -3.184302
H     -4.417372    5.721082   -4.157770
H     -2.205018    6.332540   -3.243388
H     -1.230203    5.072545   -1.363760
H     -2.417181    2.547037    2.488856
H     -0.363504    2.468461    3.803607
H      3.033806    4.579379    2.261187
H      4.978495    4.470921    3.791628
H      5.155456    2.572455    5.407592
H      3.344993    0.852944    5.415884
H      1.083700    5.435578   -0.739072
H      2.222747    6.949503   -2.331784
H      4.416454    6.343483   -3.292808
H      5.512643    4.211512   -2.668601
H      6.225043    1.819134   -1.570692
H      6.643005   -0.632742   -2.571606
H      8.643975   -2.021075   -2.826510
H      7.041772   -0.764019    1.712567
H      8.751350   -1.820323    3.518469
H     10.529402   -3.057014    4.719864
H     12.174257   -4.407310    3.464335
H     12.084651   -4.531475    1.002413
H      9.096709   -4.361709   -2.657160
H     10.404857   -5.346810   -4.493592
H     12.882702   -5.243253   -4.465023
H     14.057239   -4.117990   -2.592731
H     12.777160   -3.072146   -0.769668
H      4.435026   -1.106908    1.036952
H      2.450826    0.309650    1.309070
H     -0.095418    2.974644   -1.127639
H     -7.173210   -0.822906   -2.279364
H     -9.237089   -2.137380   -2.380330
H    -11.981615   -5.004157    0.186375
H    -13.331486   -6.154603   -1.520098
