92

C     -1.938946   -3.310077   -3.430294
C     -0.542084   -3.891513   -3.203406
C      0.538723   -2.838355   -3.450526
C     -0.443996   -4.654199   -1.883372
C     -0.556467   -6.057559   -1.979259
C     -0.490765   -6.875630   -0.856275
C     -0.319042   -6.312324    0.401237
C     -0.212178   -4.919673    0.563473
C     -0.049849   -4.356201    1.973915
C     -1.264941   -4.677439    2.850683
C      1.243827   -4.845442    2.633114
C     -0.274695   -4.089785   -0.592354
N     -0.174246   -2.676871   -0.427076
C     -1.363275   -1.971491   -0.213907
O     -2.481735   -2.474829   -0.133437
C     -1.240229   -0.505881   -0.046013
C     -2.400493    0.270164    0.075031
C     -2.307651    1.655159    0.238486
N     -3.485758    2.450978    0.357127
C     -4.026287    3.151892   -0.771337
C     -3.460039    3.084859   -2.056699
C     -4.021295    3.785066   -3.130175
C     -5.160098    4.562438   -2.939946
C     -5.740635    4.637580   -1.676760
C     -5.179129    3.936686   -0.604591
O     -5.831369    4.068345    0.599521
C     -5.320681    3.388621    1.681245
C     -6.019799    3.549719    2.881816
C     -5.578537    2.910321    4.037095
C     -4.438157    2.113582    3.991272
C     -3.739257    1.953536    2.789745
C     -4.170777    2.585003    1.609922
C     -1.042195    2.255711    0.283583
C      0.125964    1.488788    0.164906
C      1.391322    2.091522    0.213865
C      2.560085    1.326956    0.097596
N      3.839158    1.956971    0.146663
C      4.607913    1.987864    1.356969
C      4.165900    1.408883    2.559682
C      4.949026    1.463797    3.717877
C      6.186036    2.101529    3.696979
C      6.640027    2.687144    2.518300
C      5.856671    2.631057    1.361007
O      6.388992    3.246847    0.251747
C      5.656567    3.212134   -0.912277
C      6.243441    3.840381   -2.015411
C      5.586255    3.852262   -3.242711
C      4.345242    3.234154   -3.366235
C      3.758728    2.606676   -2.261782
C      4.401943    2.588551   -1.011481
C      2.456689   -0.056846   -0.069559
C      1.197822   -0.669752   -0.120893
C      0.026580    0.087307   -0.004914
C      1.112712   -2.135847   -0.310210
O      2.158594   -2.780300   -0.347228
H     -2.715673   -4.065517   -3.269021
H     -2.037382   -2.944988   -4.458748
H     -2.146693   -2.466679   -2.768015
H     -0.389501   -4.628231   -4.005661
H      1.531179   -3.212553   -3.179268
H      0.564909   -2.571032   -4.513422
H      0.348478   -1.910581   -2.905837
H     -0.699404   -6.532545   -2.948623
H     -0.577460   -7.953737   -0.962681
H     -0.275553   -6.974650    1.262830
H      0.018406   -3.264782    1.941173
H     -1.375408   -5.752872    3.025796
H     -2.188948   -4.317185    2.384903
H     -1.171526   -4.191848    3.828201
H      1.386628   -4.359110    3.604347
H      1.236875   -5.927193    2.804046
H      2.113885   -4.610543    2.010189
H     -3.383217   -0.198487    0.039725
H     -2.576295    2.483673   -2.248693
H     -3.567763    3.718771   -4.116126
H     -5.597328    5.105354   -3.773856
H     -6.632719    5.238747   -1.523160
H     -6.907890    4.175113    2.911904
H     -6.122033    3.034038    4.970110
H     -4.088864    1.613100    4.891141
H     -2.852876    1.326190    2.797688
H     -0.981686    3.335350    0.416615
H      1.483955    3.168873    0.347001
H      3.205812    0.905013    2.619524
H      4.589474    1.006082    4.636337
H      6.794898    2.143599    4.596290
H      7.603631    3.188867    2.496524
H      7.214938    4.316564   -1.914073
H      6.043027    4.338279   -4.100828
H      3.830964    3.235587   -4.324199
H      2.793588    2.129037   -2.402057
H      3.363960   -0.652171   -0.164804
