91

N    -10.555686    2.527062    0.586259
C     -9.523171    2.021376    0.426457
C     -8.263068    1.387989    0.203572
C     -7.219952    2.034294   -0.443977
C     -7.307788    3.393210   -1.010602
C     -6.404213    4.390092   -0.601227
C     -6.468897    5.683352   -1.125614
C     -7.434836    6.000935   -2.076259
C     -8.330025    5.025631   -2.507982
C     -8.264045    3.731402   -1.983917
N     -5.999220    1.465335   -0.596464
C     -5.817455    0.228326   -0.109821
C     -4.491095   -0.397506   -0.274525
C     -3.444214    0.263282   -0.945716
C     -2.182953   -0.325120   -1.103050
C     -1.938132   -1.601832   -0.591342
N     -0.655376   -2.207281   -0.750476
C     -0.428866   -3.536961   -1.115854
C     -1.313433   -4.574005   -1.481861
C     -0.786989   -5.823655   -1.822100
C      0.583756   -6.042061   -1.821515
C      1.461198   -5.005143   -1.496562
C      0.953881   -3.732250   -1.152660
C      1.577756   -2.495427   -0.818005
C      2.930223   -2.098601   -0.700662
C      3.272399   -0.793281   -0.307319
C      4.682481   -0.387593   -0.188531
C      5.564051   -0.525297   -1.265042
C      6.908529   -0.143041   -1.174404
C      7.377931    0.413486    0.031637
C      6.535842    0.525453    1.138597
C      5.181842    0.134950    1.017077
C      7.305869    1.037621    2.222982
C      6.992301    1.349294    3.564874
C      7.971076    1.886505    4.403970
C      9.249568    2.129605    3.920975
C      9.585065    1.826860    2.597968
C      8.607291    1.248342    1.760760
N      8.643877    0.861754    0.418315
C      9.793878    0.914771   -0.425567
C     11.036870    0.479593    0.051339
C     12.159371    0.530751   -0.777776
C     12.046645    1.017661   -2.079299
C     10.811373    1.453278   -2.556795
C      9.684008    1.401702   -1.734349
C      2.238612    0.102699   -0.018946
C      0.890612   -0.261789   -0.129844
C      0.570890   -1.563523   -0.563504
C     -2.959575   -2.281464    0.076974
C     -4.216102   -1.682441    0.231699
N     -6.773466   -0.469508    0.522066
C     -7.990379    0.109378    0.668239
C     -8.963045   -0.742721    1.377994
C    -10.198994   -1.093218    0.807094
C    -11.106519   -1.902114    1.497169
C    -10.790070   -2.383432    2.764889
C     -9.564625   -2.062880    3.342092
C     -8.658557   -1.253320    2.652553
H     -5.636324    4.158464    0.135323
H     -5.763066    6.440130   -0.792851
H     -7.486593    7.006810   -2.485141
H     -9.079900    5.270423   -3.256309
H     -8.966754    2.988181   -2.355567
H     -3.608772    1.254665   -1.367515
H     -1.425084    0.214344   -1.666574
H     -2.387242   -4.419553   -1.523031
H     -1.461390   -6.630831   -2.099202
H      0.978956   -7.018493   -2.089676
H      2.533612   -5.177892   -1.518575
H      3.712608   -2.827009   -0.900492
H      5.206848   -0.937507   -2.207914
H      7.563992   -0.296491   -2.026173
H      4.527936    0.223907    1.881431
H      5.988263    1.180904    3.944352
H      7.724005    2.128382    5.434492
H      9.998566    2.569458    4.575576
H     10.581705    2.057737    2.234460
H     11.143171    0.057980    1.048020
H     13.121362    0.182147   -0.410306
H     12.922417    1.057647   -2.722189
H     10.727220    1.841858   -3.568701
H      8.741176    1.785071   -2.117080
H      2.474995    1.117508    0.298489
H      0.122101    0.458326    0.133410
H     -2.791808   -3.258900    0.523538
H     -4.989708   -2.233795    0.765831
H    -10.469866   -0.748339   -0.188906
H    -12.060193   -2.158206    1.041975
H    -11.496295   -3.012914    3.300299
H     -9.310828   -2.444155    4.327934
H     -7.701558   -1.020382    3.117085
