113

C      5.569427    3.736725    4.491879
C      5.873296    3.862138    2.982680
C      5.017167    4.999092    2.384568
C      7.354616    4.284905    2.853322
C      5.538784    2.538136    2.271939
C      6.489445    1.821843    1.522582
C      6.160827    0.602199    0.881003
C      4.872002    0.088120    1.014744
C      3.887548    0.802858    1.720084
C      4.242039    2.007920    2.341335
N      4.819625   -1.107555    0.295395
C      6.064311   -1.350651   -0.288444
C      6.903486   -0.293275    0.056676
C      8.237259   -0.292656   -0.415567
C      8.748395   -1.351442   -1.195318
C      7.884078   -2.413158   -1.482734
C      6.554450   -2.436516   -1.036602
C     10.206354   -1.308549   -1.687123
C     11.165396   -1.157893   -0.486151
C     10.388792   -0.105631   -2.636724
C     10.643796   -2.574714   -2.458329
C      3.674479   -1.951991    0.178364
C      2.904990   -2.250112    1.311640
C      1.795435   -3.091026    1.201404
C      1.449409   -3.617652   -0.046568
C      2.213398   -3.330878   -1.180530
C      3.327016   -2.495598   -1.066759
S      0.047747   -4.705432   -0.173804
O      0.140288   -5.397105   -1.446918
O     -0.023427   -5.458357    1.065480
C     -1.385631   -3.654784   -0.247089
C     -1.838780   -3.189917   -1.484816
C     -2.973063   -2.376463   -1.541956
C     -3.656933   -2.040799   -0.364746
C     -3.203074   -2.525470    0.870482
C     -2.068664   -3.337072    0.929940
N     -4.817493   -1.210588   -0.421844
C     -4.944015   -0.048509   -1.186606
C     -6.213981    0.474924   -0.947229
C     -6.604641    1.670643   -1.599261
C     -5.732288    2.356577   -2.462881
C     -4.450735    1.816431   -2.644195
C     -4.036427    0.634030   -2.016298
C     -6.130525    3.661832   -3.174514
C     -5.206726    4.806695   -2.706334
C     -5.990569    3.488810   -4.702836
C     -7.585467    4.105630   -2.900366
C     -6.870418   -0.382532   -0.016568
C     -5.999783   -1.426281    0.289179
C     -6.413504   -2.477245    1.127869
C     -7.689944   -2.425994    1.707681
C     -8.577298   -1.372361    1.466377
C     -8.150563   -0.356744    0.585758
C     -9.976766   -1.298594    2.102863
C    -10.288375   -2.466740    3.065566
C    -10.110529    0.007624    2.916244
C    -11.051872   -1.319078    0.995617
H      5.834682    4.656570    5.026327
H      4.508680    3.549318    4.688942
H      6.139192    2.914773    4.941342
H      5.191751    5.099127    1.306681
H      5.256102    5.961280    2.852393
H      3.944133    4.829486    2.529648
H      7.638207    4.448121    1.807108
H      8.026830    3.529202    3.276171
H      7.546312    5.224162    3.386263
H      7.505521    2.184531    1.407337
H      2.861837    0.454298    1.782545
H      3.462756    2.538112    2.886604
H      8.869920    0.550759   -0.152726
H      8.218908   -3.270310   -2.062198
H      5.936733   -3.301043   -1.260458
H     11.017700   -0.213469    0.047763
H     11.024423   -1.970853    0.235830
H     12.212133   -1.178007   -0.811845
H      9.710338   -0.175391   -3.495194
H     11.413419   -0.059313   -3.024219
H     10.189445    0.848981   -2.137898
H     10.564777   -3.471987   -1.834258
H     10.039407   -2.729432   -3.359271
H     11.688338   -2.498843   -2.783111
H      3.185944   -1.879900    2.295667
H      1.222340   -3.342614    2.091345
H      1.954161   -3.749326   -2.151086
H      3.892075   -2.252852   -1.964544
H     -1.329578   -3.466811   -2.405992
H     -3.338069   -2.055577   -2.515617
H     -3.698432   -2.252179    1.800024
H     -1.727775   -3.711683    1.892986
H     -7.603351    2.042816   -1.395869
H     -3.729267    2.322149   -3.283931
H     -3.021155    0.281631   -2.167462
H     -5.262905    4.938375   -1.619182
H     -4.157141    4.621887   -2.960396
H     -5.488853    5.758031   -3.172173
H     -4.957940    3.281573   -5.004998
H     -6.300153    4.397575   -5.231941
H     -6.613868    2.663021   -5.064837
H     -8.306286    3.346235   -3.226167
H     -7.824514    5.030602   -3.439035
H     -7.754228    4.302111   -1.835208
H     -5.777793   -3.335500    1.324237
H     -7.965039   -3.255181    2.354700
H     -8.810591    0.471938    0.344207
H    -10.263047   -3.433471    2.549125
H     -9.574627   -2.504957    3.896956
H    -11.288669   -2.362255    3.503091
H    -10.019811    0.899923    2.287369
H    -11.086636    0.065386    3.412000
H     -9.337694    0.070662    3.691408
H    -10.968284   -2.223562    0.381694
H    -12.060884   -1.298619    1.424601
H    -10.971842   -0.457271    0.323691
