124

C      7.432313    3.501534   -1.249146
C      7.041331    3.137117    0.165022
C      6.798326    4.394398    0.941307
C      8.168452    2.308703    0.754475
C      5.831274    2.256658    0.170379
C      5.296437    1.785678    1.363128
C      4.167570    0.966125    1.342177
C      3.590924    0.629485    0.140010
N      2.438026   -0.214011    0.094229
C      2.622256   -1.623561    0.072789
C      3.930595   -2.067293    0.094358
C      4.122364   -3.424486    0.072448
C      3.104564   -4.329527    0.031187
C      3.430787   -5.759909    0.008941
C      2.251081   -6.659479   -0.085882
C      4.251135   -6.098641    1.235635
C      4.330519   -5.962761   -1.219409
C      1.808326   -3.821598    0.011327
C      1.540300   -2.497056    0.030956
B      0.146577   -1.843237    0.010092
C     -1.108929   -2.704145   -0.031010
C     -1.161692   -4.060902   -0.059637
C     -2.364689   -4.769018   -0.100027
C     -2.462995   -6.232153   -0.125613
C     -1.177111   -6.981787   -0.083330
C     -3.261823   -6.665402    1.108881
C     -3.225032   -6.735580   -1.341924
C     -3.513996   -4.035355   -0.110606
C     -3.540289   -2.664422   -0.083627
C     -2.326005   -2.013790   -0.043505
N     -2.371041   -0.591544   -0.018087
C     -3.636780    0.066938   -0.012322
C     -4.571797   -0.051449    0.964094
C     -5.797107    0.596336    0.910507
C     -6.101222    1.395158   -0.162158
C     -7.384675    2.127132   -0.312600
C     -8.331141    1.896225    0.824084
C     -7.163276    3.639062   -0.413605
C     -8.044647    1.709345   -1.620160
C     -5.177143    1.541935   -1.176146
C     -3.968272    0.888743   -1.100014
C     -1.227108    0.247902    0.020785
C     -1.313265    1.636677    0.049980
C     -0.178447    2.441434    0.092537
N     -0.323910    3.864645    0.142853
C      0.654840    4.713171   -0.450164
C      1.879095    4.977011    0.125830
C      2.747635    5.813751   -0.571643
C      2.417613    6.367745   -1.790688
C      1.193330    6.105272   -2.368480
C      0.325907    5.278135   -1.686872
C     -1.401896    4.506786    0.815682
C     -2.102197    3.862433    1.845439
C     -3.160263    4.479048    2.492973
C     -3.568408    5.732112    2.163453
C     -2.899001    6.391124    1.155312
C     -1.830911    5.767569    0.501914
C      1.055446    1.822056    0.104447
C      1.181761    0.435707    0.076372
C      0.022155   -0.291646    0.035539
C      4.098889    1.081997   -1.063149
C      5.226282    1.899787   -1.033761
H      7.704773    2.586468   -1.835247
H      6.698396    4.145098   -1.751453
H      8.381380    4.071341   -1.172110
H      7.062484    4.260600    2.008487
H      5.710852    4.633719    0.870152
H      7.370904    5.216732    0.455440
H      9.146051    2.789269    0.632485
H      8.007931    2.188032    1.863714
H      8.133186    1.274680    0.340109
H      5.773747    2.068596    2.304519
H      3.747890    0.598440    2.249476
H      4.785348   -1.416747    0.126806
H      5.128549   -3.788916    0.089045
H      2.636572   -7.648450   -0.474914
H      1.534199   -6.326324   -0.853623
H      1.837411   -6.807988    0.914115
H      4.009627   -5.352529    2.012978
H      5.307425   -6.006854    0.985891
H      3.960887   -7.126719    1.584941
H      4.375176   -7.017678   -1.530886
H      5.309729   -5.507623   -0.989066
H      3.857063   -5.350165   -2.034168
H      1.057809   -4.533071   -0.018626
H     -0.317629   -4.637970   -0.056156
H     -0.515714   -6.515076    0.659254
H     -0.702554   -7.018541   -1.070975
H     -1.426606   -8.017939    0.265524
H     -4.329119   -6.534334    0.923870
H     -3.017163   -7.711745    1.389412
H     -2.860093   -6.041545    1.939195
H     -2.599036   -6.766954   -2.257973
H     -4.187302   -6.224851   -1.471696
H     -3.464137   -7.805474   -1.088534
H     -4.448302   -4.563862   -0.141627
H     -4.496622   -2.188308   -0.100966
H     -4.350557   -0.677497    1.820059
H     -6.546617    0.505788    1.686456
H     -9.291926    2.376068    0.564820
H     -8.507620    0.805233    0.934287
H     -7.921808    2.279440    1.764982
H     -7.976609    4.060632   -1.037581
H     -6.196980    3.869655   -0.930595
H     -7.157546    4.108313    0.581635
H     -9.096470    2.039882   -1.668934
H     -8.038512    0.628034   -1.782355
H     -7.537578    2.205311   -2.492833
H     -5.366863    2.168160   -2.057441
H     -3.249036    1.010866   -1.902391
H     -2.249704    2.126673    0.031748
H      2.136033    4.547620    1.082196
H      3.728079    6.049671   -0.153952
H      3.078235    7.021710   -2.351333
H      0.895565    6.522736   -3.327920
H     -0.633449    5.085143   -2.164965
H     -1.846832    2.875851    2.188488
H     -3.685436    3.953805    3.288485
H     -4.398553    6.174539    2.695768
H     -3.232298    7.380788    0.906202
H     -1.361658    6.341736   -0.265852
H      1.955350    2.381895    0.133007
H      3.629049    0.804622   -1.999837
H      5.639585    2.263833   -1.965111
