74

C     -7.182464    2.072301    0.439552
C     -6.268505    1.311799   -0.556217
C     -6.823339    1.462988   -1.996624
C     -6.290980   -0.178039   -0.186949
C     -7.519552   -0.885418   -0.192392
C     -7.592604   -2.237377    0.133636
C     -6.437298   -2.917650    0.473696
C     -5.217383   -2.240414    0.485706
C     -5.114018   -0.866567    0.159601
N     -3.841871   -0.193796    0.181202
C     -2.661770   -0.925448    0.542840
C     -2.264610   -1.005413    1.887927
C     -1.116592   -1.714782    2.242992
C     -0.360465   -2.337816    1.245737
S      1.107444   -3.244289    1.681517
O      1.132775   -3.382277    3.126657
O      1.144834   -4.420427    0.831122
C      2.476164   -2.200748    1.235846
C      2.815258   -1.136171    2.065255
C      3.883704   -0.299874    1.732236
C      4.625444   -0.570824    0.561549
C      4.272000   -1.623694   -0.286788
C      3.193159   -2.464628    0.064164
C      5.151635   -1.595093   -1.407885
C      5.266786   -2.401499   -2.562212
C      6.275005   -2.145969   -3.494343
C      7.174989   -1.110225   -3.284947
C      7.080272   -0.297278   -2.151633
C      6.039059   -0.531537   -1.228360
N      5.711982    0.090079   -0.020850
C      6.379016    1.224573    0.530772
C      6.705009    1.255186    1.892631
C      7.358100    2.366911    2.428617
C      7.683846    3.448598    1.611584
C      7.360135    3.421638    0.255779
C      6.710299    2.311732   -0.287871
C     -0.750345   -2.279808   -0.096392
C     -1.899346   -1.569622   -0.445420
C     -3.735462    1.201897   -0.153523
C     -2.483418    1.862723   -0.133179
C     -2.350706    3.214387   -0.453196
C     -3.471004    3.946167   -0.803365
C     -4.715255    3.321234   -0.830922
C     -4.872752    1.949415   -0.509898
H     -7.248395    3.141959    0.212594
H     -8.211653    1.697162    0.431937
H     -6.808047    1.978624    1.466795
H     -6.190863    0.931774   -2.719108
H     -6.875827    2.509408   -2.316396
H     -7.838812    1.064583   -2.097098
H     -8.447134   -0.381343   -0.455339
H     -8.549014   -2.752735    0.120464
H     -6.475910   -3.972716    0.730322
H     -4.338019   -2.817901    0.758810
H     -2.860267   -0.514272    2.654307
H     -0.826722   -1.776011    3.289551
H      2.253395   -0.941018    2.976898
H      4.116735    0.548201    2.369908
H      2.925450   -3.297827   -0.580636
H      4.580915   -3.228828   -2.723239
H      6.363467   -2.772580   -4.378273
H      7.971212   -0.934180   -4.004822
H      7.817992    0.483376   -1.992710
H      6.500234    0.407670    2.542401
H      7.621905    2.385047    3.483256
H      8.191944    4.313054    2.031753
H      7.607729    4.269714   -0.377895
H      6.434811    2.331964   -1.339596
H     -0.174904   -2.784141   -0.869339
H     -2.212261   -1.515961   -1.485851
H     -1.575211    1.330113    0.135643
H     -1.372473    3.686286   -0.426838
H     -3.382150    4.999417   -1.054905
H     -5.575303    3.926221   -1.110245
