101

C      5.405256   -4.355622   -0.001055
C      5.101621   -2.833539   -0.000445
C      6.429213   -2.034136    0.000049
C      4.338108   -2.494898   -1.288609
C      4.916487   -2.795120   -2.547216
C      4.265759   -2.508743   -3.744295
C      3.018178   -1.912814   -3.713680
C      2.433301   -1.601341   -2.485657
C      3.075316   -1.876865   -1.253683
N      2.458399   -1.527853   -0.000185
C      1.229019   -0.779935   -0.000013
C      0.001579   -1.463591   -0.000209
F      0.002916   -2.806500   -0.000564
C     -1.227218   -0.782384   -0.000040
N     -2.455105   -1.532747   -0.000234
C     -3.071383   -1.882856   -1.253741
C     -2.430040   -1.605779   -2.485715
C     -3.014350   -1.918282   -3.713746
C     -4.260665   -2.516861   -3.744369
C     -4.910698   -2.804817   -2.547292
C     -4.332871   -2.503554   -1.288679
C     -5.095572   -2.844014   -0.000516
C     -5.395867   -4.366753   -0.001298
C     -6.424912   -2.047527    0.000118
C     -4.332450   -2.504937    1.287765
C     -4.909882   -2.807532    2.546237
C     -4.259490   -2.520826    3.743418
C     -3.013196   -1.922195    3.713048
C     -2.429276   -1.608371    2.485168
C     -3.070980   -1.884188    1.253097
C     -1.228893    0.626563    0.000275
C     -2.477942    1.341852    0.000455
N     -3.485180    1.919086    0.000615
C     -0.001212    1.336154    0.000406
N     -0.002673    2.780460    0.000562
C     -0.003360    3.489518   -1.253899
C     -0.002337    2.792251   -2.487067
C     -0.002982    3.455819   -3.714541
C     -0.004683    4.838356   -3.743634
C     -0.005728    5.547551   -2.545643
C     -0.005090    4.895121   -1.287483
C     -0.006328    5.729808    0.000842
C     -1.276345    6.619952    0.000787
C      1.261349    6.623293    0.001061
C     -0.005381    4.894870    1.289010
C     -0.006321    5.547059    2.547292
C     -0.005508    4.837632    3.745146
C     -0.003726    3.455100    3.715793
C     -0.002798    2.791764    2.488192
C     -0.003615    3.489271    1.255158
C      1.227885    0.629018    0.000303
C      2.475501    1.346803    0.000512
N      3.481585    1.926047    0.000694
C      3.075037   -1.877922    1.253154
C      2.432773   -1.603407    2.485220
C      3.017380   -1.915927    3.713106
C      4.264942   -2.511908    3.743491
C      4.915925   -2.797285    2.546314
C      4.337819   -2.495995    1.287838
H      5.987701   -4.666837   -0.874842
H      4.477009   -4.940923   -0.001444
H      5.987467   -4.667608    0.872617
H      6.237826   -0.953555    0.000501
H      7.048390   -2.255421   -0.876306
H      7.048197   -2.256201    0.876345
H      5.898591   -3.259565   -2.608120
H      4.735541   -2.752341   -4.693356
H      2.497418   -1.687666   -4.640231
H      1.451985   -1.140315   -2.520573
H     -1.449728   -1.142627   -2.520621
H     -2.494163   -1.691832   -4.640302
H     -4.730001   -2.761282   -4.693437
H     -5.891801   -3.271367   -2.608203
H     -5.977747   -4.679127   -0.875050
H     -5.977256   -4.680148    0.872422
H     -4.466337   -4.950015   -0.001881
H     -6.235890   -0.966525    0.000616
H     -7.043665   -2.270129   -0.876206
H     -7.043355   -2.270992    0.876437
H     -5.890957   -3.274159    2.606949
H     -4.728534   -2.766262    4.692370
H     -2.492711   -1.696731    4.639679
H     -1.448981   -1.145201    2.520273
H     -0.001006    1.708065   -2.526385
H     -0.002164    2.890288   -4.642272
H     -0.005218    5.368404   -4.692223
H     -0.007080    6.634063   -2.605283
H     -1.326109    7.277013    0.875869
H     -1.325934    7.277143   -0.874210
H     -2.186136    6.006305    0.000672
H      1.309368    7.280687   -0.873867
H      1.309244    7.280429    0.876188
H      2.172739    6.012020    0.001025
H     -0.007722    6.633559    2.607151
H     -0.006267    5.367500    4.693836
H     -0.003057    2.889405    4.643423
H     -0.001397    1.707569    2.527295
H      1.451486   -1.142342    2.520314
H      2.496440   -1.691516    4.639733
H      4.734519   -2.756292    4.692452
H      5.898004   -3.261799    2.607032
