121

C     -8.332693   -3.336639   -0.022791
C     -7.101576   -4.279457    0.006582
C     -7.573536   -5.756682    0.027946
C     -6.292649   -4.052423   -1.278211
C     -6.900688   -4.270638   -2.540116
C     -6.210137   -4.077253   -3.734109
C     -4.892035   -3.659592   -3.696800
C     -4.274362   -3.438717   -2.465290
C     -4.952029   -3.627968   -1.236444
N     -4.289070   -3.391443    0.019034
C     -2.926854   -2.943815    0.024289
C     -1.880691   -3.858552    0.033640
C     -0.566346   -3.397650    0.033232
C     -0.249168   -2.018184    0.024507
C     -1.303649   -1.070076    0.018001
C     -2.632531   -1.571010    0.017414
C     -0.986614    0.323406    0.010982
C     -1.967735    1.350314    0.006080
C     -1.638658    2.715181   -0.002987
N     -2.672007    3.709283   -0.008456
C     -3.200325    4.175447   -1.263517
C     -2.713303    3.668345   -2.492424
C     -3.208471    4.100161   -3.723362
C     -4.207399    5.056138   -3.760113
C     -4.703342    5.573602   -2.566111
C     -4.215755    5.148254   -1.304671
C     -4.798220    5.752913   -0.019538
C     -6.322111    5.465070    0.005243
C     -4.554894    7.284252   -0.051162
C     -4.183138    5.196141    1.272054
C     -4.638172    5.668952    2.528798
C     -4.113220    5.194698    3.728428
C     -3.118314    4.234207    3.702074
C     -2.654991    3.756116    2.475724
C     -3.169748    4.220891    1.241364
C     -0.299573    3.086699   -0.006548
C      0.685694    2.102419   -0.000678
C      0.374301    0.721714    0.008250
C      1.407394   -0.231216    0.013512
N      2.704277    0.170573    0.010181
C      3.677380   -0.752013    0.012561
C      5.007747   -0.356535    0.007475
C      6.053830   -1.294816    0.006949
N      7.410599   -0.823747    0.000845
C      8.072233   -0.582791   -1.255327
C      7.395416   -0.772189   -2.484658
C      8.013584   -0.549351   -3.715496
C      9.331437   -0.131464   -3.752183
C     10.021068    0.061363   -2.558010
C      9.411875   -0.155542   -1.296566
C     10.221994    0.068523   -0.012223
C     11.433751   -0.898251   -0.030158
C     10.722710    1.537012   -0.002650
C      9.431090   -0.178165    1.279880
C     10.059202    0.015855    2.535843
C      9.386104   -0.193882    3.736572
C      8.066025   -0.605229    3.712123
C      7.429500   -0.806121    2.486749
C      8.090035   -0.601757    1.251026
C      5.728778   -2.658763    0.012079
Br     7.059114   -4.012591    0.008951
C      4.390979   -3.055801    0.018935
C      3.366677   -2.118898    0.019215
N      2.090495   -2.529770    0.024671
C      1.094720   -1.606257    0.021517
C     -4.976618   -3.584925    1.268497
C     -4.322404   -3.355880    2.502968
C     -4.964976   -3.532696    3.728851
C     -6.284707   -3.946023    3.754598
C     -6.951883   -4.180031    2.554815
C     -6.318437   -4.006838    1.298402
H     -8.021916   -2.284234   -0.038705
H     -8.965316   -3.503424   -0.901430
H     -8.982912   -3.471503    0.848473
H     -8.193504   -5.984785    0.901779
H     -6.717046   -6.442468    0.046931
H     -8.178855   -6.014428   -0.848002
H     -7.936033   -4.598296   -2.605807
H     -6.703429   -4.252605   -4.686122
H     -4.338326   -3.503470   -4.618552
H     -3.238195   -3.111214   -2.487240
H     -2.086625   -4.925561    0.039738
H      0.231787   -4.140489    0.039188
H     -3.486823   -0.898710    0.009885
H     -3.028875    1.114291    0.009038
H     -1.928186    2.917106   -2.515019
H     -2.809448    3.686397   -4.645297
H     -4.601749    5.401623   -4.711768
H     -5.487416    6.324987   -2.631432
H     -6.815892    5.903240    0.879367
H     -6.518017    4.385586    0.026164
H     -6.838758    5.873661   -0.870039
H     -3.481550    7.511313   -0.066504
H     -4.983595    7.792910    0.819148
H     -5.001339    7.760121   -0.930976
H     -5.419145    6.424211    2.585779
H     -4.482790    5.576174    4.676254
H     -2.697788    3.852519    4.628306
H     -1.872636    3.002305    2.506258
H     -0.023129    4.137653   -0.013737
H      1.726840    2.426754   -0.003476
H      5.242560    0.705800    0.003147
H      6.360861   -1.102147   -2.511544
H      7.461518   -0.705911   -4.638119
H      9.825559    0.043587   -4.703730
H     11.057627    0.385394   -2.623398
H     12.070529   -0.752307   -0.909592
H     11.101701   -1.944137   -0.036775
H     12.084000   -0.767930    0.841813
H     11.347839    1.760356    0.868611
H     11.333008    1.777470   -0.879893
H      9.879337    2.238904    0.011461
H     11.097613    0.335579    2.591820
H      9.894679   -0.036521    4.683709
H      7.526160   -0.773367    4.639863
H      6.393646   -1.130833    2.523271
H      4.129918   -4.111336    0.023495
H     -3.285569   -3.031306    2.534119
H     -4.429128   -3.346203    4.655339
H     -6.797178   -4.086876    4.702297
H     -7.988992   -4.503769    2.611645
