94

N      2.991824    3.119593   -1.509821
C      2.395036    2.249857   -1.028693
C      1.660508    1.151887   -0.444187
C      2.345387    0.000459    0.000760
N      3.767201    0.000441    0.000406
C      4.556080   -0.743141   -0.864676
C      4.215196   -1.613228   -1.918089
C      5.249637   -2.225262   -2.631016
C      6.580184   -1.974744   -2.315610
C      6.910378   -1.097718   -1.278303
C      5.885766   -0.466131   -0.541726
C      5.886150    0.466836    0.541159
C      6.911297    1.098354    1.277048
C      6.581864    1.975461    2.314525
C      5.251542    2.226118    2.630787
C      4.216580    1.614157    1.918542
C      4.556689    0.743992    0.864947
C      1.660743   -1.151121    0.445714
C      2.395509   -2.248742    1.030590
N      2.992482   -3.118151    1.512079
C      0.248692   -1.155079    0.415205
N     -0.433060   -2.316830    0.889199
C     -1.180626   -2.384595    2.057189
C     -1.392703   -1.445178    3.082803
C     -2.243537   -1.788818    4.136403
C     -2.847925   -3.038759    4.185653
C     -2.599710   -3.983937    3.186733
C     -1.744167   -3.660508    2.111721
C     -1.255462   -4.399531    0.992407
C     -1.452438   -5.724249    0.546830
C     -0.799385   -6.176278   -0.602984
C      0.042162   -5.329226   -1.313264
C      0.250424   -4.011524   -0.897389
C     -0.405509   -3.562062    0.267068
C     -0.468149    0.000004    0.000387
N     -1.900423   -0.000379   -0.000217
C     -2.701980    0.801965    0.808165
C     -2.380299    1.731102    1.816682
C     -3.417126    2.398214    2.473686
C     -4.743334    2.135484    2.158591
C     -5.061748    1.188336    1.182466
C     -4.031096    0.504846    0.501171
C     -4.030365   -0.506450   -0.503879
C     -5.060026   -1.190290   -1.186322
C     -4.740197   -2.137347   -2.162074
C     -3.413546   -2.399623   -2.475704
C     -2.377685   -1.732118   -1.817571
C     -2.700807   -0.803078   -0.809421
C      0.248438    1.155373   -0.414063
N     -0.433503    2.317002   -0.888065
C     -1.180352    2.384940   -2.056497
C     -1.391688    1.445738   -3.082453
C     -2.241841    1.789574   -4.136546
C     -2.846234    3.039508   -4.185938
C     -2.598773    3.984467   -3.186641
C     -1.743981    3.660823   -2.111098
C     -1.256204    4.399587   -0.991209
C     -1.453707    5.724133   -0.545356
C     -0.801607    6.175887    0.605111
C      0.039522    5.328733    1.315766
C      0.248342    4.011216    0.899586
C     -0.406659    3.562032   -0.265505
H      3.183318   -1.814221   -2.185787
H      5.011488   -2.906541   -3.445023
H      7.372258   -2.460359   -2.880534
H      7.953308   -0.903588   -1.043965
H      7.954062    0.904155    1.042037
H      7.374377    2.461001    2.878892
H      5.013967    2.907452    3.444919
H      3.184894    1.815285    2.186876
H     -0.919825   -0.469757    3.069824
H     -2.436035   -1.066797    4.926775
H     -3.508029   -3.290030    5.011997
H     -3.056585   -4.967645    3.246056
H     -2.104185   -6.395480    1.098996
H     -0.949527   -7.199401   -0.938719
H      0.545175   -5.697175   -2.204811
H      0.900720   -3.363975   -1.475692
H     -1.353349    1.935445    2.096133
H     -3.181069    3.131713    3.241197
H     -5.539953    2.662242    2.677602
H     -6.102067    0.977791    0.951442
H     -6.100671   -0.980089   -0.956451
H     -5.536064   -2.664399   -2.681944
H     -3.176367   -3.133070   -3.242918
H     -1.350353   -1.936098   -2.095879
H     -0.918782    0.470331   -3.069373
H     -2.433796    1.067720   -4.927196
H     -3.505761    3.290964   -5.012688
H     -3.055669    4.968160   -3.246076
H     -2.105115    6.395453   -1.097805
H     -0.952164    7.198870    0.941071
H      0.541752    5.696490    2.207834
H      0.898263    3.363522    1.478150
