128

O      7.519484   -0.018375   -0.690092
P      7.755489   -0.482615    0.740271
C      9.178373    0.413918    1.422765
C     10.000740   -0.106166    2.436868
C     11.064369    0.649983    2.939492
C     11.324425    1.926014    2.432820
C     10.523896    2.445085    1.417083
C      9.459441    1.695388    0.914940
C      8.143196   -2.244052    0.781854
C      9.257731   -2.703138    0.061749
C      9.597393   -4.056547    0.057366
C      8.823315   -4.970154    0.770084
C      7.704637   -4.530642    1.480615
C      7.361127   -3.178412    1.478765
C      6.396390   -0.150796    1.838416
C      6.510678   -0.055057    3.239226
C      5.410381    0.227789    4.052959
C      4.141425    0.423100    3.500318
C      3.988475    0.322400    2.105428
C      5.109002    0.037843    1.330470
O      4.753489   -0.033485    0.020474
C      3.423955    0.225048   -0.071558
C      2.679909    0.256082   -1.246668
P      3.402649   -0.051725   -2.841880
O      2.314644   -0.415251   -3.845347
C      4.592090   -1.401001   -2.724193
C      5.850706   -1.337441   -3.338879
C      6.761597   -2.386814   -3.209303
C      6.420168   -3.525232   -2.480258
C      5.161349   -3.622567   -1.895591
C      4.249042   -2.573240   -2.024885
C      4.218031    1.489315   -3.310213
C      3.706353    2.243551   -4.374884
C      4.305685    3.447335   -4.755569
C      5.427474    3.916734   -4.070595
C      5.941465    3.182642   -3.005798
C      5.341000    1.979140   -2.629003
C      1.312484    0.561102   -1.094065
C      0.715167    0.809867    0.155472
C     -0.718704    1.143142    0.253756
C     -1.687272    0.389964   -0.421572
C     -3.045853    0.720621   -0.350529
C     -3.499639    1.802842    0.425303
C     -5.005870    2.193438    0.452906
C     -5.983558    0.979060    0.362037
C     -7.133084    0.998867   -0.449387
C     -7.991663   -0.103400   -0.534000
C     -7.734144   -1.252845    0.216453
N     -8.594928   -2.387981    0.109604
C     -8.170255   -3.717461    0.012699
C     -6.880834   -4.293009   -0.058321
C     -6.764935   -5.679168   -0.197894
C     -7.892629   -6.485424   -0.278105
C     -9.165453   -5.914017   -0.238065
C     -9.312713   -4.513450   -0.108828
C    -10.450961   -3.653370   -0.099429
C    -11.839668   -3.892666   -0.202828
C    -12.736501   -2.825235   -0.150201
C    -12.274479   -1.529665    0.032156
C    -10.904447   -1.270574    0.149601
C     -9.991871   -2.342453    0.044534
C     -6.622644   -1.283556    1.064806
C     -5.765353   -0.178984    1.138309
C     -5.400657    3.037730    1.700840
C     -5.364016    2.672184    3.044510
C     -5.756562    3.610893    4.000553
C     -6.181359    4.891194    3.611261
C     -6.219532    5.258420    2.262315
C     -5.825001    4.329158    1.311630
C     -5.734496    4.453654   -0.125656
C     -6.040941    5.525761   -0.951537
C     -5.839152    5.392334   -2.329403
C     -5.331930    4.199603   -2.868634
C     -5.024447    3.118316   -2.039804
C     -5.238198    3.249367   -0.668864
C     -2.521319    2.570981    1.081114
C     -1.161071    2.242017    1.003625
C      1.524282    0.749681    1.307959
C      2.898009    0.456471    1.193064
H      9.816013   -1.096107    2.850768
H     11.697196    0.245927    3.730087
H     12.157860    2.509343    2.825403
H     10.725485    3.436265    1.014012
H      8.841439    2.106998    0.113613
H      9.856171   -1.996916   -0.513600
H     10.460225   -4.399483   -0.511020
H      9.087238   -6.025408    0.768340
H      7.094518   -5.249349    2.024921
H      6.468913   -2.867839    2.015836
H      7.477553   -0.196812    3.717593
H      5.540688    0.308157    5.131091
H      3.293150    0.652368    4.138050
H      6.143391   -0.464003   -3.915137
H      7.744631   -2.306856   -3.665420
H      7.138345   -4.331726   -2.365480
H      4.893243   -4.511390   -1.331069
H      3.267087   -2.660808   -1.567860
H      2.829715    1.893378   -4.915214
H      3.903687    4.016995   -5.590693
H      5.905313    4.846281   -4.368418
H      6.819885    3.533187   -2.467821
H      5.768638    1.418736   -1.801462
H      0.705923    0.619830   -2.000372
H     -1.393340   -0.469500   -1.023176
H     -3.746651    0.117567   -0.924784
H     -7.385132    1.873454   -1.040166
H     -8.827296   -0.053095   -1.225022
H     -5.981615   -3.683465   -0.036658
H     -5.777849   -6.127607   -0.259658
H     -7.790565   -7.560132   -0.396491
H    -10.044930   -6.543273   -0.327525
H    -12.212732   -4.906329   -0.322556
H    -13.802639   -3.013132   -0.240678
H    -12.984963   -0.707315    0.087689
H    -10.569915   -0.254558    0.328336
H     -6.421108   -2.142777    1.702507
H     -4.911400   -0.234300    1.812860
H     -5.032103    1.686450    3.354362
H     -5.729446    3.349536    5.057284
H     -6.479750    5.607756    4.372980
H     -6.545977    6.253535    1.977292
H     -6.421549    6.458022   -0.547271
H     -6.071880    6.224005   -2.992039
H     -5.181395    4.118023   -3.943537
H     -4.641861    2.194808   -2.462964
H     -2.800025    3.455131    1.650771
H     -0.443227    2.879380    1.515655
H      1.097667    0.924982    2.292009
