130

O     -7.774902   -0.074556   -0.677109
P     -7.618773   -0.141277    0.833502
C     -9.243324   -0.245142    1.624459
C    -10.311582   -0.797421    0.898838
C    -11.576106   -0.924383    1.473806
C    -11.790549   -0.498037    2.782399
C    -10.743154    0.058898    3.512817
C     -9.475936    0.184405    2.939127
C     -6.815770    1.344726    1.473030
C     -6.915830    2.538502    0.742860
C     -6.300682    3.704911    1.196757
C     -5.583712    3.692933    2.391049
C     -5.481586    2.516652    3.131331
C     -6.093419    1.347815    2.675396
C     -6.640265   -1.569206    1.334097
C     -7.149523   -2.548153    2.204520
C     -6.382921   -3.658837    2.562317
C     -5.101302   -3.817590    2.045661
C     -4.580367   -2.861311    1.176869
C     -5.336299   -1.731831    0.835985
O     -4.878389   -0.786254   -0.059352
C     -3.549696   -0.436612   -0.024886
C     -2.946792   -0.042486    1.175044
C     -1.614802    0.376168    1.194931
C     -0.858560    0.435342    0.017072
C      0.549100    0.876311    0.033177
C      0.944880    2.024078    0.734386
C      2.281972    2.443671    0.755305
C      3.285639    1.721908    0.086069
C      4.768089    2.196242    0.062001
C      5.808217    1.035713    0.081007
C      5.610691   -0.090742    0.907166
C      6.549182   -1.125818    0.971743
C      7.726396   -1.050175    0.224176
N      8.690911   -2.099432    0.297568
C     10.072579   -1.922831    0.414074
C     10.863077   -0.761102    0.546905
C     12.249370   -0.895902    0.669042
C     12.843274   -2.150224    0.682081
C     12.057840   -3.301286    0.588585
C     10.654727   -3.191693    0.466004
C      9.607955   -4.155942    0.386606
C      9.595757   -5.568589    0.392817
C      8.388191   -6.257627    0.258224
C      7.198532   -5.559980    0.103607
C      7.184112   -4.162190    0.097506
C      8.399070   -3.465842    0.272833
C      7.957688    0.066795   -0.581711
C      7.012953    1.097996   -0.645028
C      4.938720    3.160845   -1.147378
C      4.748229    2.895975   -2.500767
C      4.960037    3.926376   -3.417791
C      5.355289    5.200023   -2.983052
C      5.543594    5.466151   -1.623874
C      5.332535    4.444369   -0.710653
C      5.447121    4.446945    0.729541
C      5.800304    5.471841    1.594364
C      5.833250    5.210449    2.967040
C      5.513541    3.938077    3.463068
C      5.156166    2.905082    2.595116
C      5.125357    3.165753    1.227674
C      2.878426    0.589771   -0.645684
C      1.541904    0.170876   -0.661023
C     -1.492438    0.059551   -1.179936
C     -2.834417   -0.378307   -1.224124
P     -3.506106   -0.841991   -2.831371
O     -2.363852   -1.168968   -3.788409
C     -4.484933    0.518932   -3.490885
C     -5.096078    1.487152   -2.684191
C     -5.855248    2.511629   -3.254883
C     -6.012730    2.581220   -4.637469
C     -5.408466    1.629200   -5.453074
C     -4.649487    0.606544   -4.883733
C     -4.554559   -2.295674   -2.649481
C     -5.953872   -2.223084   -2.635914
C     -6.723857   -3.376790   -2.476585
C     -6.105556   -4.618143   -2.343373
C     -4.716002   -4.709271   -2.371843
C     -3.945931   -3.555673   -2.524700
H    -10.152676   -1.128304   -0.126992
H    -12.392728   -1.353856    0.899669
H    -12.776382   -0.594511    3.230106
H    -10.915085    0.398007    4.531946
H     -8.678546    0.620954    3.533327
H     -7.473565    2.551709   -0.192582
H     -6.379681    4.621258    0.617420
H     -5.102867    4.602004    2.743910
H     -4.921211    2.510970    4.062962
H     -5.999285    0.438466    3.264664
H     -8.157556   -2.471490    2.604267
H     -6.795755   -4.411740    3.230138
H     -4.513029   -4.694467    2.303550
H     -3.592573   -3.019589    0.752059
H     -3.506276   -0.052931    2.105479
H     -1.169033    0.654883    2.147581
H      0.206059    2.627135    1.258841
H      2.514403    3.361147    1.292143
H      4.716918   -0.170464    1.524242
H      6.363121   -1.955537    1.649697
H     10.419998    0.229424    0.576528
H     12.866760   -0.005545    0.765850
H     13.922047   -2.239878    0.780491
H     12.527593   -4.280076    0.618908
H     10.525256   -6.121628    0.492313
H      8.384959   -7.344555    0.259007
H      6.266295   -6.105224   -0.025417
H      6.245874   -3.639188   -0.059704
H      8.850227    0.144078   -1.198268
H      7.245233    1.955904   -1.273100
H      4.442855    1.913471   -2.844964
H      4.814328    3.741317   -4.479689
H      5.511822    5.990467   -3.713081
H      5.844620    6.457159   -1.301315
H      6.050402    6.460240    1.223877
H      6.111130    6.001672    3.659468
H      5.547111    3.754640    4.534539
H      4.907898    1.924811    2.987551
H      3.601173    0.013381   -1.221429
H      1.285121   -0.723254   -1.226466
H     -0.935784    0.111866   -2.116817
H     -5.001224    1.454247   -1.602870
H     -6.330399    3.251662   -2.616796
H     -6.608087    3.376613   -5.077606
H     -5.528341    1.679767   -6.532032
H     -4.177265   -0.134001   -5.527992
H     -6.463090   -1.265645   -2.726301
H     -7.807922   -3.299699   -2.453173
H     -6.707706   -5.514040   -2.220696
H     -4.231617   -5.677410   -2.278445
H     -2.860420   -3.633672   -2.556070
