90

C      9.651732   -1.968005   -1.126457
C      8.942189   -1.325890    0.093962
C      9.816304   -1.505090    1.362440
C      8.790611    0.177781   -0.176028
C      9.943043    0.971013   -0.405728
C      9.857853    2.337277   -0.661995
C      8.616120    2.945880   -0.696256
C      7.469013    2.183714   -0.471701
C      7.526365    0.794444   -0.204940
N      6.326403    0.034668    0.026055
C      5.054039    0.696037    0.001578
C      4.545118    1.294343    1.161986
C      3.299434    1.926359    1.141212
C      2.537287    1.969882   -0.037343
C      1.225756    2.628589   -0.052562
C      1.150913    4.019654   -0.079305
N      0.000020    4.725905   -0.093863
C     -1.149431    4.017101   -0.079629
C     -1.221935    2.625746   -0.050966
C     -2.532684    1.964600   -0.036626
C     -3.312235    1.901687   -1.203138
C     -4.558359    1.270440   -1.194933
C     -5.050003    0.691447   -0.017455
N     -6.323857    0.032803   -0.012482
C     -7.515236    0.792440    0.259430
C     -7.446241    2.176216    0.549921
C     -8.585002    2.937908    0.815067
C     -9.829477    2.334432    0.797180
C     -9.925931    0.973683    0.516076
C     -8.782354    0.181198    0.245655
C     -8.946754   -1.314792   -0.057936
C     -9.840263   -1.457422   -1.317271
C     -9.642862   -1.983969    1.156365
C     -7.625861   -2.051697   -0.319877
C     -7.639323   -3.440809   -0.603022
C     -6.468635   -4.153874   -0.848181
C     -5.252816   -3.494968   -0.817545
C     -5.216875   -2.127570   -0.542582
C     -6.391012   -1.378030   -0.289737
C     -4.280785    0.756529    1.151769
C     -3.034688    1.388179    1.141536
C      0.002714    1.927236   -0.038594
C      0.004765    0.488113   -0.012607
N      0.006096   -0.672712    0.008204
C      3.056227    1.374436   -1.198500
C      4.302428    0.743133   -1.180131
C      6.382780   -1.380236    0.283945
C      5.201592   -2.127033    0.512787
C      5.226401   -3.499362    0.762994
C      6.437841   -4.166105    0.793115
C      7.615577   -3.455229    0.574102
C      7.613631   -2.060765    0.319513
H     10.633556   -1.522656   -1.321057
H      9.827807   -3.040472   -0.991643
H      9.051977   -1.847758   -2.037443
H      9.998992   -2.559128    1.598926
H      9.334917   -1.052231    2.238499
H     10.803740   -1.042041    1.258132
H     10.934639    0.523772   -0.387996
H     10.759223    2.918555   -0.835161
H      8.531398    4.010218   -0.896879
H      6.516194    2.704786   -0.511563
H      5.122024    1.258449    2.083088
H      2.924906    2.376122    2.059021
H      2.052943    4.628822   -0.094292
H     -2.052472    4.624934   -0.087723
H     -2.951133    2.335783   -2.133973
H     -5.149311    1.220739   -2.106420
H     -6.490810    2.693275    0.576732
H     -8.491903    3.997984    1.033634
H    -10.724594    2.915597    1.000753
H    -10.919846    0.531221    0.509810
H    -10.824095   -0.993776   -1.184519
H    -10.030783   -2.504171   -1.578227
H     -9.370353   -0.984004   -2.188491
H     -9.024858   -1.899666    2.059285
H     -9.836639   -3.049681    0.991364
H    -10.614744   -1.532084    1.382750
H     -8.578006   -3.990125   -0.635984
H     -6.510087   -5.218292   -1.062705
H     -4.328702   -4.035130   -1.005321
H     -4.237340   -1.655590   -0.530173
H     -4.655085    0.306694    2.068196
H     -2.457599    1.421084    2.063924
H      2.492081    1.391096   -2.129196
H      4.690059    0.278072   -2.083592
H      4.225204   -1.648644    0.501077
H      4.297089   -4.036575    0.933356
H      6.471405   -5.234369    0.988175
H      8.550570   -4.010123    0.608136
