92

N     12.211555   -2.716870    1.244027
C     11.181796   -2.468404    0.772991
C      9.898219   -2.158644    0.210937
C      8.829492   -1.896589    1.079078
C      7.564876   -1.591179    0.600593
N      6.581861   -1.349916    1.492278
C      5.403930   -1.064377    0.923482
C      5.196151   -1.018483   -0.462803
N      6.152621   -1.255266   -1.369187
C      7.351464   -1.544035   -0.822310
C      8.417367   -1.805308   -1.669103
C      9.690993   -2.112646   -1.171112
C     10.750553   -2.372537   -2.103409
N     11.594743   -2.579731   -2.870479
C      3.804095   -0.683486   -0.690282
C      3.053186   -0.510228   -1.836454
C      1.695614   -0.179421   -1.692374
C      1.096421   -0.014885   -0.407843
N     -0.308878    0.281730   -0.324014
C     -1.217906   -0.839938   -0.312169
C     -0.746927   -2.170784   -0.418949
C     -1.603469   -3.277651   -0.413918
C     -2.979663   -3.110205   -0.298294
C     -3.899335   -4.259668   -0.297355
C     -5.011116   -4.297925   -1.156327
C     -5.885313   -5.388377   -1.157841
C     -5.663306   -6.460921   -0.298271
C     -4.568784   -6.443689    0.562209
C     -3.695074   -5.352656    0.561742
C     -3.452933   -1.797376   -0.183961
C     -2.596913   -0.658756   -0.190156
C     -3.194382    0.737385   -0.053100
C     -4.296911    0.949097   -1.128843
C     -4.151274    0.978422   -2.510779
C     -5.292687    1.179094   -3.287377
C     -6.550660    1.345679   -2.684671
C     -6.691855    1.315041   -1.293137
C     -5.561625    1.116418   -0.517323
C     -5.412369    1.040112    0.921663
C     -6.357765    1.145440    1.928584
C     -5.934844    1.031581    3.257235
C     -4.582382    0.814986    3.569204
C     -3.626251    0.707939    2.559012
C     -4.051392    0.822222    1.240706
C     -2.177348    1.894161   -0.095113
C     -2.680726    3.204836    0.012605
C     -1.851385    4.311856   -0.014270
C     -0.460663    4.156081   -0.157572
C      0.057695    2.853758   -0.266595
S      1.780684    2.986990   -0.444329
C      1.824493    4.682609   -0.362365
C      2.965148    5.507066   -0.436614
C      2.807792    6.891235   -0.352663
C      1.546254    7.444309   -0.198948
C      0.421324    6.617058   -0.126465
C      0.549445    5.203992   -0.207951
C     -0.776787    1.662794   -0.232498
C      1.872155   -0.208936    0.774631
C      1.487355   -0.117755    2.134457
C      2.420665   -0.342504    3.171393
C      3.758550   -0.664624    2.892150
C      4.142734   -0.758550    1.568963
C      3.208410   -0.534383    0.560896
H      8.980438   -1.929811    2.158314
H      8.245217   -1.766857   -2.744982
H      3.497511   -0.624105   -2.820262
H      1.083460   -0.039787   -2.581677
H      0.313911   -2.387926   -0.513283
H     -1.175750   -4.272865   -0.515363
H     -5.198971   -3.474755   -1.843412
H     -6.737507   -5.398092   -1.832219
H     -6.343179   -7.308696   -0.298223
H     -4.394566   -7.276980    1.237781
H     -2.854047   -5.354911    1.252155
H     -4.528073   -1.652362   -0.073145
H     -3.178500    0.847722   -2.974757
H     -5.208697    1.206521   -4.371448
H     -7.426889    1.500437   -3.310354
H     -7.670027    1.444418   -0.842291
H     -7.405968    1.310804    1.703524
H     -6.663048    1.109776    4.061449
H     -4.278924    0.727835    4.609957
H     -2.581331    0.537757    2.798209
H     -3.749587    3.384925    0.122325
H     -2.289124    5.303199    0.073597
H      3.953762    5.072938   -0.557634
H      3.681110    7.536601   -0.408751
H      1.428426    8.523180   -0.134277
H     -0.560310    7.068071   -0.005664
H      0.459690    0.133573    2.388249
H      2.093996   -0.261390    4.206428
H      4.470261   -0.834411    3.694140
