47

C     -1.773988   -2.077250   -1.296898
C     -1.123393   -1.522835    0.000002
C     -1.773982   -2.077259    1.296901
C      0.314644   -2.091496   -0.000007
C      0.521197   -3.497509   -0.000026
C      1.795071   -4.060000   -0.000032
C      2.899898   -3.230370   -0.000021
C      2.718313   -1.847299   -0.000012
C      1.433021   -1.250140   -0.000002
N      1.276966    0.173850    0.000009
C      2.452045    1.001895    0.000007
C      3.031490    1.408741    1.211853
C      4.172537    2.211691    1.209674
C      4.741233    2.612144   -0.000007
C      4.172444    2.211801   -1.209678
C      3.031399    1.408849   -1.211841
C     -0.028666    0.788508    0.000008
C     -0.127826    2.195161    0.000018
C     -1.348517    2.854962    0.000024
C     -2.537224    2.140762    0.000014
C     -3.739596    2.871381   -0.000000
C     -4.972156    2.233139   -0.000002
C     -5.009483    0.852859    0.000013
C     -3.813564    0.122636    0.000016
C     -2.518328    0.720487    0.000014
C     -1.225805    0.026530    0.000009
H     -2.779641   -1.709908   -1.497327
H     -1.174574   -1.803967   -2.175752
H     -1.855125   -3.169835   -1.286195
H     -2.779659   -1.709963    1.497297
H     -1.174595   -1.803926    2.175763
H     -1.855067   -3.169846    1.286230
H     -0.324829   -4.181512   -0.000041
H      1.917731   -5.139354   -0.000054
H      3.902789   -3.647616   -0.000031
H      3.617073   -1.235466   -0.000017
H      2.587619    1.095500    2.153357
H      4.617300    2.524060    2.150779
H      5.630487    3.237645   -0.000011
H      4.617136    2.524246   -2.150790
H      2.587452    1.095695   -2.153340
H      0.760174    2.822236    0.000028
H     -1.347550    3.942877    0.000033
H     -3.723041    3.959925   -0.000010
H     -5.891328    2.811336   -0.000002
H     -5.963072    0.331376    0.000029
H     -3.937011   -0.954737    0.000017
