86

C    -12.190947    0.001378   -0.000717
C    -11.493050    0.547814    1.073143
C    -10.095413    0.547567    1.072306
C     -9.370979    0.000756   -0.000229
C     -7.898600    0.000461   -0.000002
C     -7.174715    1.186139    0.202703
C     -5.775753    1.187629    0.202819
C     -5.059187   -0.000069    0.000264
C     -3.576880   -0.000311    0.000264
C     -2.871764    0.214697   -1.224310
C     -3.538247    0.431826   -2.460077
C     -2.853998    0.641929   -3.656412
C     -1.473019    0.641656   -3.656247
C     -0.789246    0.431404   -2.459959
C     -1.456553    0.214621   -1.224987
C     -0.751178   -0.000608    0.000247
C      0.751173   -0.000688    0.000248
C      1.456510   -1.225945   -0.214963
C      0.789156   -2.460881   -0.431790
C      1.472890   -3.657190   -0.642045
C      2.853871   -3.657407   -0.642291
C      3.538169   -2.461105   -0.432139
C      2.871725   -1.225328   -0.214978
C      3.576873   -0.000799    0.000115
C      5.059181   -0.000779   -0.000053
C      5.776105   -0.203655    1.187373
C      7.175071   -0.203291    1.185496
C      7.898603   -0.000006   -0.000301
C      9.370991    0.000684   -0.000380
C     10.094812    1.073752   -0.546977
C     11.492444    1.075564   -0.546929
C     12.190964    0.002161   -0.000401
C     11.493566   -1.071979    0.546122
C     10.095929   -1.071633    0.546190
C      7.174757    0.202738   -1.185996
C      5.775793    0.202337   -1.187627
C      2.871825    1.223783    0.215325
C      3.538375    2.459516    0.432458
C      2.854195    3.655865    0.642706
C      1.473217    3.655751    0.642588
C      0.789378    2.459497    0.432358
C      1.456616    1.224511    0.215441
C     -1.456584   -0.215718    1.225481
C     -0.789301   -0.432634    2.460440
C     -1.473102   -0.642762    3.656731
C     -2.854083   -0.642764    3.656910
C     -3.538312   -0.432507    2.460590
C     -2.871799   -0.215502    1.224820
C     -5.776159   -1.187507   -0.202377
C     -7.175121   -1.185493   -0.202526
C    -10.095289   -0.545738   -1.073013
C    -11.492924   -0.545367   -1.074335
H    -13.277718    0.001623   -0.000901
H    -12.034367    0.972755    1.914343
H     -9.570308    0.969549    1.926907
H     -7.699470    2.128003    0.351040
H     -5.243944    2.124096    0.359390
H     -4.626117    0.440495   -2.507558
H     -3.404630    0.804263   -4.578727
H     -0.921420    0.803587   -4.578089
H      0.298626    0.439583   -2.507423
H     -0.298718   -2.508298   -0.440002
H      0.921258   -4.579006   -0.804011
H      3.404467   -4.579738   -0.804653
H      4.626037   -2.508616   -0.440801
H      5.244582   -0.360624    2.123936
H      7.700108   -0.351837    2.127171
H      9.569215    1.928033   -0.968995
H     12.033264    1.917167   -0.971702
H     13.277734    0.002736   -0.000398
H     12.035270   -1.913013    0.970892
H      9.571229   -1.926446    0.968245
H      7.699550    0.351631   -2.127750
H      5.244023    0.359097   -2.124084
H      4.626247    2.506956    0.441028
H      3.404876    4.578151    0.805039
H      0.921671    4.577605    0.804628
H     -0.298491    2.507000    0.440670
H      0.298571   -0.441019    2.507896
H     -0.921522   -0.804810    4.578563
H     -3.404732   -0.805011    4.579230
H     -4.626183   -0.440961    2.508086
H     -5.244675   -2.124166   -0.358891
H     -7.700205   -2.127155   -0.350984
H     -9.570080   -0.967937   -1.927442
H    -12.034133   -0.970064   -1.915727
