97

C     -9.388263   -3.883065   -3.345395
C    -10.157377   -2.958032   -2.646861
C     -9.537873   -2.006633   -1.829453
C     -8.136756   -1.953944   -1.688194
C     -7.483919   -0.947176   -0.823795
N     -8.265869   -0.081247   -0.178584
C     -7.631873    0.806937    0.587440
C     -8.452680    1.790706    1.325927
C     -7.865774    2.757421    2.166706
C     -8.640733    3.688866    2.865982
C    -10.026178    3.676170    2.741201
C    -10.636231    2.734301    1.919078
C     -9.857933    1.804531    1.221332
N     -6.307714    0.868533    0.732391
C     -5.612321   -0.039082    0.047201
C     -4.138563   -0.014664    0.171403
C     -3.325926   -0.938917   -0.513761
C     -1.930004   -0.921339   -0.398605
C     -1.307028    0.033268    0.408729
N      0.114918    0.058065    0.527363
C      0.909023    1.207287    0.490356
C      0.589308    2.561342    0.269518
C      1.620934    3.508805    0.269942
C      2.957052    3.145658    0.463807
C      4.026178    4.158242    0.462848
C      4.894763    4.283357    1.563564
C      5.922689    5.234942    1.599001
C      6.046167    6.057406    0.484035
O      6.977309    7.038062    0.329088
C      6.760931    7.601483   -0.891338
C      7.501690    8.647179   -1.438082
C      7.120249    9.085742   -2.710278
C      6.049191    8.496016   -3.386568
C      5.321593    7.444599   -2.810324
C      5.688536    6.987705   -1.530246
C      5.222590    5.983155   -0.632514
C      4.195578    5.018315   -0.643632
C      3.257319    1.784550    0.644974
C      2.236308    0.805880    0.645416
C      2.251414   -0.613921    0.766334
C      3.292220   -1.555806    0.939232
C      3.014679   -2.927602    1.067894
C      4.102742   -3.903006    1.249376
C      5.015576   -3.769832    2.312692
C      6.062366   -4.678817    2.516131
C      6.158332   -5.728624    1.608641
O      7.101813   -6.709300    1.637067
C      6.848968   -7.533883    0.583585
C      7.588338   -8.667539    0.253002
C      7.166143   -9.383835   -0.871729
C      6.057870   -8.971893   -1.616278
C      5.332720   -7.825873   -1.258823
C      5.740418   -7.090068   -0.129924
C      5.290393   -5.914824    0.539737
C      4.245132   -4.987550    0.357102
C      1.678878   -3.338938    1.033910
C      0.628478   -2.428479    0.861546
C      0.932033   -1.062778    0.696742
C     -2.087477    0.963867    1.098744
C     -3.482869    0.934199    0.979945
N     -6.152994   -0.966535   -0.742998
C     -7.386526   -2.904600   -2.408824
C     -8.002415   -3.857451   -3.227303
H     -9.868212   -4.622711   -3.980830
H    -11.240736   -2.973061   -2.735135
H    -10.167173   -1.296088   -1.295657
H     -6.784017    2.792707    2.285669
H     -8.158496    4.422376    3.507151
H    -10.629562    4.399056    3.283943
H    -11.718432    2.719317    1.817683
H    -10.364926    1.080122    0.585725
H     -3.780430   -1.688421   -1.160707
H     -1.351782   -1.633581   -0.982742
H     -0.430226    2.885607    0.084630
H      1.360352    4.555337    0.116989
H      4.766780    3.631715    2.427496
H      6.587624    5.331659    2.448458
H      8.329451    9.092408   -0.899822
H      7.668477    9.899927   -3.179879
H      5.774534    8.856817   -4.375720
H      4.491449    6.993336   -3.345203
H      3.546161    4.934448   -1.510998
H      4.290904    1.468693    0.766790
H      4.321187   -1.204935    0.969782
H      4.908462   -2.943030    3.014324
H      6.761554   -4.576260    3.336956
H      8.445236   -8.972104    0.841312
H      7.711712  -10.276611   -1.170578
H      5.751831   -9.547907   -2.487253
H      4.473502   -7.514590   -1.845042
H      3.560387   -5.106819   -0.478321
H      1.433162   -4.392122    1.164596
H     -0.395639   -2.788558    0.879962
H     -1.638804    1.693609    1.768947
H     -4.063550    1.666215    1.540193
H     -6.300061   -2.910215   -2.337294
H     -7.396261   -4.577672   -3.770899
