96

C     -3.205213   -5.701965    0.120563
C     -2.117114   -5.599845    0.982986
C     -1.293044   -4.471204    0.941623
C     -1.532169   -3.429326    0.027789
C     -0.678500   -2.228414   -0.032205
N     -1.376870   -1.061146   -0.006264
C     -0.709235    0.114971    0.008447
C     -1.419065    1.331817    0.030599
C     -2.897658    1.371463    0.036224
C     -3.636364    0.776497    1.072171
C     -5.034445    0.822244    1.084349
C     -5.721978    1.465948    0.051156
N     -7.148310    1.509327    0.056758
C     -7.942769    1.795812    1.169839
C     -7.609132    2.162746    2.491189
C     -8.637635    2.413669    3.404036
C     -9.968020    2.324003    3.017931
C    -10.298348    1.996401    1.700712
C     -9.276879    1.741340    0.758697
C     -9.292520    1.424610   -0.631027
C    -10.335745    1.241216   -1.566288
C    -10.038384    0.890358   -2.885171
C     -8.720125    0.706333   -3.279349
C     -7.670161    0.884662   -2.373479
C     -7.968300    1.276731   -1.050764
C     -5.003683    2.063345   -0.989650
C     -3.605431    2.016891   -0.992016
C     -0.714274    2.545212    0.051111
C      0.673589    2.556517    0.051117
C      1.397506    1.354775    0.025515
C      2.875326    1.415845    0.030148
C      3.574135    2.085688   -0.988025
C      4.972047    2.143840   -0.988817
C      5.697657    1.523396    0.032609
N      7.123611    1.559743    0.024966
C      7.902389    2.688932   -0.241720
C      7.551856    4.031872   -0.496201
C      8.568852    4.965951   -0.715203
C      9.903964    4.589425   -0.662380
C     10.251646    3.268248   -0.372302
C      9.242407    2.305528   -0.146371
C      9.277501    0.920519    0.190251
C     10.333454    0.008338    0.411270
C     10.052240   -1.332568    0.685266
C      8.737751   -1.776791    0.729959
C      7.675323   -0.892154    0.522069
C      7.958697    0.469599    0.281616
C      5.019236    0.857266    1.057267
C      3.621893    0.811152    1.054817
C      0.707460    0.126407   -0.000331
N      1.394383   -1.038483   -0.044778
C      0.715214   -2.216410   -0.081669
C      1.587871   -3.400039   -0.196519
C      2.698411   -3.548082    0.654960
C      3.541316   -4.658857    0.562893
C      3.294836   -5.641597   -0.391502
C      2.212877   -5.509324   -1.257782
C      1.371823   -4.395998   -1.165203
C     -2.649379   -3.547717   -0.819609
C     -3.475475   -4.673860   -0.778453
H     -3.848617   -6.577215    0.155521
H     -1.909830   -6.395119    1.694613
H     -0.460896   -4.412392    1.640677
H     -3.120413    0.250571    1.874417
H     -5.564779    0.307469    1.881869
H     -6.576586    2.270811    2.808660
H     -8.389643    2.690631    4.426353
H    -10.757634    2.523315    3.737722
H    -11.341492    1.947769    1.401156
H    -11.370648    1.362707   -1.259413
H    -10.844937    0.746226   -3.599578
H     -8.499099    0.410447   -4.302366
H     -6.650043    0.700520   -2.696546
H     -5.507848    2.602759   -1.788078
H     -3.068532    2.487975   -1.813448
H     -1.251312    3.491952    0.082923
H      1.195272    3.511666    0.084552
H      3.031672    2.549323   -1.809516
H      5.472539    2.630428   -1.822392
H      6.516266    4.356873   -0.510433
H      8.308752    6.001320   -0.921600
H     10.684244    5.326584   -0.833964
H     11.298793    2.984628   -0.313877
H     11.365200    0.343611    0.355299
H     10.868580   -2.032029    0.846691
H      8.529992   -2.828026    0.917724
H      6.656743   -1.269105    0.526175
H      5.554279    0.397037    1.884272
H      3.112403    0.289433    1.862769
H      2.913132   -2.781904    1.398279
H      4.392204   -4.750642    1.232474
H      3.950937   -6.504909   -0.467119
H      2.023855   -6.269015   -2.012035
H      0.544706   -4.311268   -1.867730
H     -2.883495   -2.745480   -1.518907
H     -4.332809   -4.741809   -1.442973
