85

F     -7.949895    4.160715    0.260517
C     -6.941818    4.252857   -0.649356
F     -7.398950    3.648761   -1.781533
F     -6.834494    5.576578   -0.955143
C     -5.651215    3.657444   -0.140379
C     -4.716007    4.453034    0.536846
C     -3.533776    3.895958    1.022986
C     -3.274887    2.535754    0.848552
C     -4.200994    1.722130    0.182802
N     -3.938022    0.325594    0.021165
C     -2.708139   -0.258083   -0.303061
C     -1.480249    0.438543   -0.707658
C     -1.479458    1.431216   -1.693352
C     -0.286029    2.061516   -2.059025
C      0.926219    1.702801   -1.464141
O      2.007837    2.399348   -1.923592
C      3.292498    2.132610   -1.360864
C      3.970734    0.977452   -2.097602
C      5.392428    0.698308   -1.611518
C      5.435155    0.122169   -0.196586
N      6.793232   -0.203400    0.218234
C      7.396684   -1.432561    0.032322
C      6.931643   -2.612253   -0.574314
C      7.786218   -3.718073   -0.611043
C      9.062936   -3.653645   -0.063781
C      9.518685   -2.474884    0.534346
C      8.676063   -1.343462    0.584069
C      8.833841   -0.019984    1.102152
C      9.891016    0.648060    1.756846
C      9.734995    1.982801    2.142938
C      8.546183    2.656531    1.885105
C      7.483504    2.017889    1.239038
C      7.647929    0.674913    0.857446
C      0.935587    0.694739   -0.502146
C     -0.259047    0.064336   -0.132321
N     -2.790032   -1.573688   -0.266990
C     -4.093721   -1.876735    0.016054
C     -4.540954   -3.259283    0.104600
C     -5.424597   -3.697772    1.098838
C     -5.827560   -5.035339    1.150878
C     -5.342155   -5.949170    0.217277
C     -4.447944   -5.529620   -0.765080
C     -4.046424   -4.192758   -0.817635
C     -4.854315   -0.725392    0.172693
C     -6.271845   -0.582354    0.512978
C     -7.255602   -1.020222   -0.383196
C     -8.608501   -0.884776   -0.067202
C     -8.987811   -0.316681    1.147821
C     -8.016337    0.110074    2.051701
C     -6.662735   -0.026425    1.738779
C     -5.385532    2.287538   -0.309758
H     -4.906141    5.515154    0.687376
H     -2.814570    4.520711    1.548414
H     -2.359685    2.129019    1.273530
H     -2.399841    1.720420   -2.194687
H     -0.301264    2.835080   -2.823537
H      3.239953    1.990807   -0.276713
H      3.886879    3.041583   -1.512070
H      3.366146    0.066132   -2.024475
H      4.001801    1.219519   -3.167735
H      5.860688   -0.011851   -2.304936
H      5.989707    1.616928   -1.664934
H      4.832252   -0.789728   -0.125008
H      5.026347    0.823171    0.537944
H      5.939436   -2.677557   -1.008750
H      7.446465   -4.641165   -1.075149
H      9.713681   -4.523477   -0.101674
H     10.518120   -2.431126    0.956757
H     10.823384    0.129221    1.958831
H     10.550899    2.495252    2.646202
H      8.440920    3.695307    2.189582
H      6.563485    2.558108    1.042747
H      1.848779    0.358541   -0.025102
H     -0.234584   -0.734235    0.608026
H     -5.800986   -3.011229    1.852128
H     -6.516258   -5.362701    1.925385
H     -5.653851   -6.989361    0.260861
H     -4.057880   -6.240719   -1.488216
H     -3.340465   -3.876683   -1.583502
H     -6.973870   -1.470636   -1.332833
H     -9.365843   -1.225404   -0.768740
H    -10.041854   -0.210859    1.392433
H     -8.312785    0.547976    3.001470
H     -5.916828    0.304556    2.457929
H     -6.106583    1.686139   -0.861259
