68

C      7.103406    3.487178    0.443259
C      8.025036    2.536694    0.029604
C      7.629136    1.210221   -0.167608
C      6.282551    0.816465    0.045309
C      5.377901    1.794772    0.467258
C      5.772325    3.132125    0.669473
S      3.808839    1.134938    0.699100
C      4.289925   -0.400204    0.184224
C      5.645656   -0.478199   -0.083605
C      6.164074   -1.754145   -0.420830
C      5.378534   -2.934075   -0.426705
C      3.997029   -2.916925   -0.151648
C      3.002178   -3.917604    0.025246
C      3.033285   -5.328825   -0.014201
C      1.870163   -6.058756    0.242483
C      0.681015   -5.403384    0.533436
C      0.621776   -4.007199    0.571336
C      1.797479   -3.269049    0.324405
N      2.025984   -1.891145    0.213112
C      0.991129   -0.914952    0.148568
C      1.085280    0.127054   -0.765520
N      0.117827    1.068465   -0.917010
C     -0.991066    0.915096   -0.148684
N     -2.025984    1.891225   -0.213332
C     -1.797578    3.269117   -0.324952
C     -0.621953    4.007292   -0.572149
C     -0.681278    5.403482   -0.534575
C     -1.870437    6.058844   -0.243656
C     -3.033479    5.328895    0.013314
C     -3.002287    3.917668   -0.025827
C     -3.997060    2.916973    0.151364
C     -5.378539    2.934108    0.426534
C     -6.164027    1.754143    0.420956
C     -5.645587    0.478161    0.083905
C     -6.282442   -0.816551   -0.044718
C     -7.628988   -1.210326    0.168423
C     -8.024852   -2.536853   -0.028500
C     -7.103227   -3.487379   -0.442073
C     -5.772183   -3.132311   -0.668500
C     -5.377795   -1.794899   -0.466582
S     -3.808789   -1.135033   -0.698718
C     -4.289877    0.400178   -0.184034
C     -3.389279    1.694881   -0.071519
C     -1.085188   -0.126885    0.765439
N     -0.117748   -1.068312    0.916915
C      3.389291   -1.694846    0.071419
H      7.418051    4.516855    0.596743
H      9.060485    2.821543   -0.140844
H      8.364484    0.477244   -0.489733
H      5.053388    3.876997    0.999405
H      7.227132   -1.849397   -0.637792
H      5.870371   -3.884499   -0.626344
H      3.960619   -5.850212   -0.234106
H      1.898173   -7.145070    0.215892
H     -0.219991   -5.980290    0.729284
H     -0.323183   -3.516219    0.785427
H      1.922278    0.231984   -1.448175
H      0.323020    3.516332   -0.786211
H      0.219665    5.980395   -0.730654
H     -1.898524    7.145161   -0.217322
H     -3.960823    5.850274    0.233187
H     -5.870405    3.884551    0.626019
H     -7.227070    1.849392    0.637997
H     -8.364328   -0.477326    0.490510
H     -9.060268   -2.821719    0.142136
H     -7.417842   -4.517108   -0.595315
H     -5.053247   -3.877216   -0.998367
H     -1.922161   -0.231795    1.448130
