118

C      6.748025   -3.876587    2.527943
C      6.174342   -3.649792    1.276729
C      6.603082   -2.577740    0.492657
C      7.615395   -1.734260    0.965349
N      8.034014   -0.612421    0.198675
C      7.188562    0.360759   -0.340537
C      5.723445    0.348275   -0.317923
C      5.010835    0.332258    0.887377
C      3.613870    0.292606    0.882485
C      2.902474    0.280330   -0.327224
C      1.422221    0.206593   -0.331639
C      0.653503    1.410494   -0.361973
C      1.254271    2.697861   -0.385257
C      0.508014    3.874844   -0.417585
C     -0.871244    3.803152   -0.426840
C     -1.491331    2.554713   -0.402878
C     -0.760239    1.336628   -0.369376
C     -1.399626    0.058717   -0.342313
C     -2.879626   -0.019624   -0.351110
C     -3.603427   -0.008350    0.851080
C     -4.998825   -0.089185    0.844283
C     -5.699369   -0.168391   -0.366025
C     -7.161948   -0.265485   -0.400935
N     -7.790182   -1.308872   -0.902043
C     -9.126601   -1.099134   -0.678169
C    -10.210272   -1.959094   -0.978365
C     -9.968369   -3.235027   -1.520196
C    -11.032752   -4.089150   -1.794933
C    -12.340933   -3.676343   -1.537994
C    -12.604439   -2.401313   -1.009442
C    -13.913639   -1.970847   -0.770081
C    -14.159132   -0.688825   -0.276991
C    -13.101931    0.190529   -0.006655
C    -13.354446    1.489714    0.451399
C    -12.306642    2.376328    0.681103
C    -10.987532    1.967814    0.487979
C    -10.687690    0.650294    0.080424
C    -11.765364   -0.233100   -0.211055
C    -11.528643   -1.528514   -0.721729
C     -9.355595    0.148822   -0.095280
N     -8.069936    0.638056    0.156912
C     -7.722015    1.781711    0.924474
C     -8.269152    1.944946    2.204215
C     -7.898677    3.044870    2.978656
C     -6.983432    3.973470    2.482100
C     -6.432615    3.805107    1.211225
C     -6.795604    2.707627    0.429586
C     -4.979837   -0.203055   -1.566511
C     -3.584584   -0.121258   -1.560421
C     -0.630783   -1.145511   -0.306535
C     -1.231424   -2.433084   -0.272375
C     -0.485607   -3.610397   -0.239720
C      0.893465   -3.538816   -0.240715
C      1.513510   -2.290422   -0.272811
C      0.782606   -1.071812   -0.303922
C      3.620586    0.332696   -1.531702
C      5.017415    0.374993   -1.526299
N      7.884821    1.373489   -0.813961
C      9.205323    1.061541   -0.612433
C     10.347141    1.845949   -0.905104
C     10.196082    3.152233   -1.405446
C     11.319088    3.930089   -1.673628
C     12.595508    3.410271   -1.453230
C     12.768051    2.103044   -0.967434
C     14.043660    1.564863   -0.766861
C     14.197008    0.253123   -0.316387
C     13.079520   -0.549262   -0.050324
C     13.237525   -1.877785    0.364388
C     12.127666   -2.686854    0.589401
C     10.841668   -2.171039    0.434828
C     10.639726   -0.822142    0.071347
C     11.777171   -0.016556   -0.215748
C     11.632605    1.307993   -0.684512
C      9.348245   -0.215262   -0.066263
C      8.186090   -1.957090    2.226062
C      7.751796   -3.032469    3.002168
H      6.409698   -4.712338    3.136015
H      5.390645   -4.308933    0.912130
H      6.151674   -2.432341   -0.485765
H      5.535448    0.344274    1.840087
H      3.077684    0.265313    1.829318
H      2.338395    2.802615   -0.379264
H      1.010520    4.838010   -0.435995
H     -1.468938    4.709837   -0.451447
H     -2.579879    2.545604   -0.409499
H     -3.077789    0.056345    1.802061
H     -5.529997   -0.096018    1.793554
H     -8.948700   -3.560180   -1.718203
H    -10.843433   -5.075771   -2.209434
H    -13.158673   -4.357638   -1.763094
H    -14.757046   -2.625242   -0.979113
H    -15.189602   -0.378765   -0.116668
H    -14.375297    1.831112    0.608918
H    -12.516714    3.393130    1.003244
H    -10.210914    2.710335    0.635096
H     -8.964862    1.217065    2.617599
H     -8.318575    3.175107    3.973281
H     -6.695351    4.828982    3.088564
H     -5.718319    4.530641    0.829269
H     -6.364496    2.604444   -0.563687
H     -5.506596   -0.300581   -2.514052
H     -3.044851   -0.147769   -2.505141
H     -2.315496   -2.538388   -0.271500
H     -0.988555   -4.573650   -0.215132
H      1.490978   -4.445423   -0.216584
H      2.602189   -2.281309   -0.271500
H      3.090406    0.340487   -2.482264
H      5.555525    0.423682   -2.470867
H      9.201774    3.560423   -1.576561
H     11.200384    4.940541   -2.055704
H     13.459816    4.033180   -1.674005
H     14.931829    2.157800   -0.973525
H     15.202740   -0.140978   -0.186511
H     14.231065   -2.302291    0.491616
H     12.262940   -3.726183    0.878141
H     10.011120   -2.854283    0.576328
H      8.952106   -1.294514    2.623967
H      8.192288   -3.208265    3.980374
