95

C     -3.705487   -2.580625    3.384217
C     -3.325980   -1.713710    2.361987
C     -3.001913   -2.215955    1.099591
C     -3.057730   -3.594690    0.855652
N     -2.725575   -4.114408   -0.431264
C     -1.708538   -3.678930   -1.290577
C     -0.672899   -2.683365   -0.988918
C      0.103724   -2.754212    0.173515
C      1.074846   -1.782710    0.437890
C      1.303670   -0.726959   -0.458838
C      2.321866    0.299667   -0.166336
C      3.677332   -0.093460   -0.132479
C      4.698142    0.829937    0.123080
N      6.060327    0.404876    0.153258
C      7.130940    1.083313   -0.435085
C      7.180136    2.244076   -1.236479
C      8.418691    2.688347   -1.708605
C      9.583051    1.992601   -1.414146
C      9.530145    0.822800   -0.652907
C      8.290062    0.351314   -0.167084
C      7.914913   -0.799226    0.585930
C      8.649682   -1.878104    1.126367
C      7.997418   -2.865859    1.867494
C      6.629443   -2.785455    2.088109
C      5.879960   -1.728986    1.562139
C      6.532405   -0.750676    0.781529
C      4.375356    2.167542    0.348711
C      3.039662    2.573226    0.320753
C      1.995636    1.660920    0.066016
C      0.608753    2.166175    0.064259
C      0.188775    3.098162   -0.899370
C     -1.120679    3.589117   -0.907636
C     -2.036402    3.147879    0.051801
N     -3.376005    3.638565    0.045644
C     -3.748904    4.974933   -0.115068
C     -2.983919    6.152602   -0.253218
C     -3.645687    7.378095   -0.373933
C     -5.031870    7.444565   -0.339097
C     -5.788167    6.283091   -0.165998
C     -5.143219    5.032581   -0.039353
C     -5.624393    3.707438    0.172811
C     -6.918773    3.161934    0.324283
C     -7.082093    1.782365    0.476177
C     -5.978204    0.940816    0.462052
C     -4.688347    1.458194    0.316394
C     -4.519893    2.854170    0.206999
C     -1.634186    2.221468    1.019806
C     -0.320647    1.742130    1.026567
C      0.549871   -0.685672   -1.640636
C     -0.423880   -1.653971   -1.904130
N     -1.744565   -4.335162   -2.436990
C     -2.749684   -5.249113   -2.322485
C     -3.179153   -6.199299   -3.262525
C     -4.268081   -7.018682   -2.952571
C     -4.928713   -6.882603   -1.734330
C     -4.513652   -5.939092   -0.786586
C     -3.391290   -5.146789   -1.091769
C     -3.437874   -4.461681    1.888405
C     -3.760029   -3.952632    3.148575
H     -3.956882   -2.186604    4.365880
H     -3.288778   -0.643202    2.546930
H     -2.740692   -1.508969    0.316054
H     -0.038122   -3.563356    0.886220
H      1.651523   -1.851830    1.358063
H      3.924167   -1.129273   -0.364074
H      6.280443    2.786504   -1.509825
H      8.467268    3.584842   -2.322505
H     10.538866    2.348520   -1.789896
H     10.442950    0.271560   -0.445164
H      9.723743   -1.937240    0.974413
H      8.567805   -3.692159    2.283802
H      6.134176   -3.548672    2.683997
H      4.817446   -1.672327    1.776134
H      5.139036    2.902114    0.593256
H      2.807609    3.618499    0.521519
H      0.882732    3.436773   -1.666672
H     -1.415789    4.276675   -1.696618
H     -1.898599    6.130851   -0.249498
H     -3.065027    8.290826   -0.487070
H     -5.532659    8.404779   -0.432319
H     -6.871843    6.345401   -0.120584
H     -7.789745    3.811065    0.310854
H     -8.080504    1.366730    0.586318
H     -6.117075   -0.134327    0.553836
H     -3.842217    0.781625    0.267701
H     -2.312812    1.893641    1.803385
H     -0.021396    1.034028    1.797000
H      0.716686    0.105349   -2.368887
H     -0.991709   -1.602052   -2.831489
H     -2.671416   -6.280994   -4.217556
H     -4.609310   -7.754711   -3.676361
H     -5.790229   -7.511811   -1.519503
H     -5.069032   -5.823910    0.137947
H     -3.444339   -5.540072    1.752199
H     -4.044649   -4.629145    3.950915
