99

C      5.923408   -3.313105    3.593996
C      5.196789   -2.223733    3.124666
C      4.185187   -2.413508    2.177532
C      3.871914   -3.693531    1.676174
C      2.802804   -3.889183    0.673653
N      2.528897   -5.133873    0.283702
C      1.561899   -5.251035   -0.628211
C      1.215949   -6.611329   -1.094073
C      0.209507   -6.827246   -2.056569
C     -0.118461   -8.113216   -2.498894
C      0.553624   -9.218478   -1.987056
C      1.551864   -9.038940   -1.034966
C      1.877594   -7.751290   -0.595707
N      0.886996   -4.225732   -1.150624
C      1.234264   -3.022303   -0.696902
C      0.536982   -1.843030   -1.249960
C     -0.393596   -1.953491   -2.297798
C     -1.030346   -0.827887   -2.827001
C     -0.749736    0.439652   -2.318703
C      0.159087    0.600752   -1.266653
C      0.479581    1.931019   -0.710832
C      1.813163    2.384875   -0.803239
C      2.205013    3.621084   -0.277401
N      3.571655    4.027269   -0.350016
C      4.672249    3.203607   -0.092441
C      4.763259    1.863122    0.343171
C      6.026800    1.294866    0.529387
C      7.178359    2.039486    0.315847
C      7.089069    3.377556   -0.075333
C      5.823497    3.974359   -0.271618
C      5.415095    5.291862   -0.631192
C      6.129391    6.473869   -0.929163
C      5.440988    7.632386   -1.295934
C      4.055763    7.624462   -1.383314
C      3.326247    6.468301   -1.090777
C      4.019016    5.308264   -0.683059
C      1.254819    4.440109    0.330885
C     -0.071824    4.012121    0.424253
C     -0.481726    2.760975   -0.080028
C     -1.888922    2.358921    0.098523
C     -2.919361    3.035382   -0.573481
C     -4.254328    2.647205   -0.421618
C     -4.578905    1.570502    0.410233
N     -5.937213    1.156922    0.552628
C     -7.028844    2.011465    0.726731
C     -7.109444    3.412323    0.877552
C     -8.363956    4.001901    1.059654
C     -9.513541    3.225810    1.112598
C     -9.430071    1.836141    1.001081
C     -8.173654    1.216110    0.819071
C     -7.768788   -0.146153    0.708544
C     -8.478445   -1.367605    0.731846
C     -7.797710   -2.574542    0.555732
C     -6.426062   -2.579145    0.342663
C     -5.701166   -1.384083    0.318073
C     -6.382869   -0.167367    0.535218
C     -3.564410    0.895478    1.096492
C     -2.232939    1.292279    0.943158
C      0.787956   -0.548530   -0.750551
N      2.181041   -2.803456    0.215775
C      4.625140   -4.775559    2.172462
C      5.638764   -4.589472    3.118632
H      6.709476   -3.168076    4.330472
H      5.412571   -1.224480    3.494715
H      3.633139   -1.541389    1.830636
H     -0.334961   -5.982537   -2.475728
H     -0.899219   -8.247132   -3.243306
H      0.299913  -10.218176   -2.329681
H      2.080326   -9.898767   -0.631045
H      2.663740   -7.643253    0.149978
H     -0.627431   -2.929278   -2.720722
H     -1.742993   -0.940028   -3.640349
H     -1.247727    1.305192   -2.750431
H      2.537293    1.765378   -1.332043
H      3.878982    1.268014    0.547987
H      6.106825    0.258429    0.850229
H      8.154506    1.585221    0.464942
H      7.995017    3.959068   -0.221752
H      7.214828    6.481585   -0.884203
H      5.995401    8.537873   -1.528972
H      3.530053    8.525005   -1.692583
H      2.246409    6.478436   -1.200946
H      1.530211    5.387779    0.787427
H     -0.793498    4.653741    0.928654
H     -2.682289    3.860419   -1.242565
H     -5.016489    3.165003   -0.998905
H     -6.221990    4.037469    0.874243
H     -8.437025    5.081358    1.170604
H    -10.482002    3.697821    1.256999
H    -10.331793    1.233634    1.064514
H     -9.554997   -1.370407    0.877103
H     -8.348477   -3.511494    0.570979
H     -5.907677   -3.522228    0.184360
H     -4.634472   -1.411880    0.116326
H     -3.789000    0.082697    1.783044
H     -1.457700    0.758940    1.490356
H      1.494401   -0.426858    0.070841
H      4.425980   -5.786361    1.819723
H      6.203357   -5.444333    3.482284
