88

O      6.560613   -4.593426   -0.200689
C      6.503018   -3.368832   -0.124509
C      7.761927   -2.584166   -0.065299
C      8.861890   -3.137897    0.599974
C     10.064667   -2.433612    0.667963
C     10.174975   -1.182505    0.061366
C      9.087633   -0.636910   -0.621705
C      7.881829   -1.337759   -0.692206
C      5.173429   -2.708497   -0.092223
C      4.939552   -1.562231    0.675824
C      3.669697   -0.976793    0.690674
C      2.624433   -1.544758   -0.050036
N      1.327596   -0.947617   -0.031302
C      1.068172    0.421838   -0.133746
C      1.919266    1.525398   -0.339177
C      1.358216    2.806094   -0.420731
C     -0.022362    3.015993   -0.324580
N     -0.578583    4.346707   -0.410344
C     -1.795719    4.574744   -1.153626
C     -2.785462    5.449624   -0.671355
C     -3.964808    5.667546   -1.388667
C     -4.174547    5.015078   -2.601066
C     -3.207012    4.144997   -3.097428
C     -2.027858    3.926674   -2.380007
C      0.081752    5.447986    0.250205
C      0.186551    6.706005   -0.369251
C      0.827051    7.771157    0.269493
C      1.372617    7.596967    1.539090
C      1.279158    6.359318    2.171006
C      0.639815    5.293741    1.531812
C     -0.856042    1.895743   -0.155766
C     -0.315493    0.591893   -0.074352
C     -0.908395   -0.696467    0.059733
C     -2.249382   -1.132053    0.163807
C     -2.557588   -2.494644    0.328306
N     -3.929352   -2.935329    0.436985
C     -4.878230   -2.161282    1.202647
C     -4.513633   -1.574730    2.427741
C     -5.430950   -0.823089    3.166863
C     -6.728656   -0.644838    2.693768
C     -7.110809   -1.217381    1.483042
C     -6.193690   -1.969492    0.744076
C     -4.351766   -4.148609   -0.222501
C     -3.893938   -4.468254   -1.513218
C     -4.302105   -5.642752   -2.151015
C     -5.174291   -6.518306   -1.508786
C     -5.639630   -6.221041   -0.230164
C     -5.232351   -5.046049    0.407281
C     -1.500277   -3.409244    0.397576
C     -0.163541   -3.004328    0.292665
C      0.119768   -1.639263    0.091220
C      2.854001   -2.704683   -0.800503
C      4.124545   -3.286269   -0.816126
H      8.782858   -4.118886    1.064536
H     10.916722   -2.864518    1.187979
H     11.114629   -0.637245    0.110944
H      9.183921    0.330662   -1.108540
H      7.055754   -0.909257   -1.253518
H      5.725970   -1.128275    1.288708
H      3.502849   -0.109806    1.326622
H      2.991689    1.408031   -0.457742
H      2.022970    3.651242   -0.590437
H     -2.650977    5.954527    0.282374
H     -4.719893    6.343219   -0.995732
H     -5.092350    5.183471   -3.158325
H     -3.366206    3.635746   -4.044263
H     -1.279265    3.255541   -2.794444
H     -0.217905    6.858847   -1.367168
H      0.900604    8.734665   -0.227925
H      1.869369    8.426004    2.036343
H      1.698686    6.221447    3.164025
H      0.560929    4.341370    2.050831
H     -1.932475    2.024915   -0.077036
H     -3.047610   -0.396520    0.106345
H     -3.510681   -1.714923    2.824063
H     -5.129882   -0.380233    4.112577
H     -7.441632   -0.059129    3.268073
H     -8.121193   -1.076498    1.108428
H     -6.507504   -2.391779   -0.207677
H     -3.226933   -3.789832   -2.039917
H     -3.940370   -5.869419   -3.150456
H     -5.491325   -7.432076   -2.004576
H     -6.317176   -6.903803    0.275702
H     -5.593719   -4.841963    1.412514
H     -1.707732   -4.464934    0.563866
H      0.623945   -3.745353    0.390828
H      2.070801   -3.151183   -1.409112
H      4.297431   -4.188453   -1.400630
