92

N      2.082949  -11.266501    0.077145
C      1.468779  -10.281664    0.053834
C      0.691544   -9.079055    0.024479
N      1.395275   -7.916879    0.050729
C      0.710476   -6.743465    0.024864
C      1.395932   -5.518883    0.047554
C      2.804242   -5.453090    0.095682
C      3.468489   -4.228223    0.108757
C      2.716011   -3.069067    0.072354
C      3.286930   -1.708375    0.058293
C      4.475713   -1.378019    0.727049
C      4.974097   -0.066056    0.719736
C      4.304403    0.965305    0.040837
N      4.805811    2.319285    0.050528
C      3.887707    3.433594    0.127371
C      4.102792    4.601542   -0.626299
C      3.211301    5.676133   -0.560371
C      2.088212    5.601839    0.259760
C      1.855383    4.455432    1.015077
C      2.749036    3.382499    0.952050
C      6.226817    2.563618   -0.022113
C      7.044368    1.826016   -0.896651
C      8.419545    2.063701   -0.967042
C      9.000230    3.042227   -0.163634
C      8.208064    3.784362    0.709214
C      6.832708    3.547724    0.778804
C      3.123531    0.635881   -0.638327
C      2.624092   -0.671106   -0.622253
N      1.364804   -3.122896    0.030412
C      0.699217   -4.299555    0.019568
C     -0.693944   -4.300311   -0.022326
N     -1.360819   -3.124382   -0.033229
C     -2.712112   -3.071864   -0.074524
C     -3.284434   -1.711633   -0.060094
C     -2.619506   -0.672460    0.615604
C     -3.120363    0.633989    0.632277
C     -4.305087    0.960971   -0.041260
N     -4.808437    2.314213   -0.049981
C     -3.892369    3.429703   -0.133577
C     -4.104900    4.598498    0.619496
C     -3.215274    5.674198    0.547013
C     -2.096672    5.600239   -0.279238
C     -1.866443    4.453009   -1.034090
C     -2.758206    3.378934   -0.964455
C     -6.229351    2.556523    0.030658
C     -7.040624    1.818900    0.911022
C     -8.415725    2.054594    0.989168
C     -9.002625    3.031089    0.187795
C     -8.216728    3.773211   -0.690733
C     -6.841435    3.538586   -0.768059
C     -4.976864   -0.072142   -0.715396
C     -4.476877   -1.383511   -0.723455
C     -3.463274   -4.231912   -0.110472
C     -2.797703   -5.456079   -0.097662
C     -1.389329   -5.520378   -0.050027
C     -0.702555   -6.744225   -0.027452
N     -1.386096   -7.918369   -0.053353
C     -0.681120   -9.079791   -0.027168
C     -1.457062  -10.283231   -0.056516
N     -2.070165  -11.268736   -0.079800
H      3.398942   -6.365786    0.116197
H      4.552620   -4.200639    0.124655
H      5.019650   -2.128610    1.295513
H      5.881112    0.149880    1.280245
H      4.961674    4.673688   -1.289443
H      3.394545    6.567513   -1.154443
H      1.394649    6.436630    0.311144
H      0.979239    4.392830    1.655788
H      2.555388    2.504737    1.564464
H      6.607142    1.071261   -1.546014
H      9.034011    1.486960   -1.653259
H     10.069841    3.227384   -0.218481
H      8.658200    4.546723    1.339565
H      6.233911    4.126700    1.478139
H      2.576220    1.393685   -1.193990
H      1.692369   -0.877819   -1.149272
H     -1.684978   -0.877196    1.138436
H     -2.571159    1.393237    1.184097
H     -4.960191    4.670480    1.287290
H     -3.396452    6.566209    1.140769
H     -1.404559    6.435893   -0.335685
H     -0.993789    4.390642   -1.679558
H     -2.566722    2.500484   -1.576560
H     -6.598430    1.065733    1.558884
H     -9.025254    1.477893    1.679819
H    -10.072179    3.214686    0.248661
H     -8.671737    4.533993   -1.319514
H     -6.247639    4.117501   -1.471709
H     -5.887028    0.141923   -1.271510
H     -5.022886   -2.135454   -1.288123
H     -4.547434   -4.205706   -0.125825
H     -3.391440   -6.369413   -0.117857
