78

N     -2.268560    6.879363   -0.785992
C     -2.585371    5.767067   -0.690863
C     -2.976675    4.392694   -0.572957
C     -2.357198    3.416544   -1.361654
C     -2.733202    2.075134   -1.247843
C     -3.739419    1.709981   -0.345463
N     -4.106424    0.344027   -0.189675
C     -3.218776   -0.707326    0.050333
C     -1.755728   -0.630491    0.067971
C     -1.014179   -1.433747   -0.804114
C      0.383745   -1.378805   -0.804851
C      1.075840   -0.530734    0.074464
C      2.546696   -0.472605    0.072958
C      3.222350    0.751609   -0.057705
C      4.620327    0.811476   -0.059136
C      5.371175   -0.361102    0.068566
N      6.797511   -0.304804    0.065590
C      7.638858   -1.175026   -0.632870
C      7.363162   -2.233172   -1.525246
C      8.430706   -2.929630   -2.099569
C      9.743374   -2.578143   -1.816821
C     10.016528   -1.506915   -0.963293
C      8.955002   -0.785495   -0.372635
C      8.912056    0.347883    0.490567
C      9.915734    1.152618    1.074676
C      9.562584    2.198195    1.930672
C      8.227719    2.442398    2.222395
C      7.216149    1.662119    1.654581
C      7.570533    0.629980    0.759535
C      4.715555   -1.589057    0.199215
C      3.317247   -1.639484    0.202411
C      0.322030    0.252501    0.963317
C     -1.076289    0.198240    0.967468
N     -3.874173   -1.802800    0.370836
C     -5.208296   -1.485083    0.325329
C     -6.317004   -2.300876    0.646727
C     -6.060556   -3.595747    1.145814
C     -7.110123   -4.434033    1.503739
C     -8.416821   -3.987486    1.365407
C     -8.673849   -2.705664    0.861867
C     -7.635202   -1.816235    0.479290
C     -7.832073   -0.510582   -0.079911
C     -9.116489    0.027164   -0.343471
C     -9.301553    1.270630   -0.953617
C     -8.203501    2.018308   -1.341834
C     -6.920945    1.538245   -1.090240
C     -6.713101    0.305233   -0.425799
C     -5.402027   -0.180787   -0.122748
C     -4.358513    2.683757    0.450740
C     -3.976988    4.022931    0.332960
H     -1.577877    3.692859   -2.070482
H     -2.246577    1.339595   -1.885558
H     -1.523412   -2.110927   -1.487406
H      0.931710   -2.005878   -1.505732
H      2.659477    1.675167   -0.180234
H      5.100090    1.776228   -0.206755
H      6.346061   -2.505756   -1.789118
H      8.227937   -3.750795   -2.783359
H     10.563487   -3.127259   -2.272200
H     11.046241   -1.224329   -0.763143
H     10.963579    0.953981    0.867835
H     10.338658    2.811555    2.381220
H      7.963879    3.244114    2.908437
H      6.182145    1.851124    1.925763
H      5.269921   -2.513040    0.346417
H      2.828682   -2.604234    0.329156
H      0.823578    0.900774    1.679671
H     -1.625205    0.801443    1.686990
H     -5.035651   -3.945249    1.261246
H     -6.906215   -5.428436    1.890784
H     -9.244246   -4.635260    1.644099
H     -9.717263   -2.417894    0.770754
H    -10.016389   -0.527255   -0.091739
H    -10.307132    1.636682   -1.144846
H     -8.340919    2.969641   -1.849024
H     -6.092992    2.133938   -1.458453
H     -5.121924    2.414472    1.179559
H     -4.461488    4.772474    0.956997
