61

C      1.605448    0.692448    3.042605
C      0.467052    0.123667    2.466947
C      0.524517   -0.501756    1.210482
C     -0.677041   -1.091194    0.602968
C     -0.699195   -2.410261    0.146156
N     -1.771061   -3.017088   -0.419135
C     -2.893937   -2.274180   -0.542788
C     -2.991564   -0.955987   -0.120040
N     -4.205448   -0.232683   -0.278235
C     -5.483133   -0.732974   -0.014006
C     -5.919073   -1.969011    0.510417
C     -7.289552   -2.184209    0.684575
C     -8.210930   -1.195469    0.368909
C     -7.777629    0.041349   -0.113385
C     -6.398010    0.284705   -0.295838
C     -5.661927    1.426559   -0.726593
C     -6.047445    2.722854   -1.135167
C     -5.080305    3.641162   -1.549477
C     -3.740228    3.280935   -1.575627
C     -3.333237    2.005318   -1.173468
C     -4.306127    1.089747   -0.717788
C     -1.865382   -0.361148    0.458584
C      1.763197   -0.540195    0.545748
C      2.909144    0.030956    1.119865
N      4.155626   -0.017365    0.425907
C      4.669061   -1.137215   -0.233505
C      4.195779   -2.462550   -0.341063
C      4.946080   -3.392006   -1.067328
C      6.148696   -3.029195   -1.657834
C      6.636421   -1.727827   -1.518971
C      5.897833   -0.770740   -0.787894
C      6.140841    0.591976   -0.447854
C      7.203714    1.479810   -0.727313
C      7.144831    2.802143   -0.281644
C      6.038150    3.253455    0.424195
C      4.975025    2.393599    0.715688
C      5.051195    1.047495    0.298407
C      2.825889    0.648829    2.371257
H      1.541134    1.159672    4.022479
H     -0.471079    0.161933    3.018437
H      0.177301   -3.048337    0.234091
H     -3.711559   -2.786477   -1.042672
H     -5.220698   -2.748888    0.799277
H     -7.635541   -3.136333    1.081132
H     -9.273264   -1.376748    0.511271
H     -8.503574    0.817779   -0.338345
H     -7.096636    3.005005   -1.138294
H     -5.382304    4.635717   -1.867765
H     -2.996811    3.995233   -1.922720
H     -2.282574    1.739313   -1.238249
H     -1.909484    0.660585    0.829183
H      1.813986   -0.972427   -0.452785
H      3.276252   -2.780699    0.139716
H      4.585890   -4.414004   -1.162317
H      6.722400   -3.763061   -2.218104
H      7.588745   -1.457127   -1.966261
H      8.063646    1.139373   -1.297317
H      7.963134    3.482501   -0.503075
H      5.991433    4.291006    0.747210
H      4.106091    2.779871    1.239301
H      3.706237    1.062159    2.858048
