59

C     -7.889862   -1.002815   -1.870397
C     -6.794329   -1.581978   -2.495398
C     -5.503538   -1.406867   -1.987411
C     -5.330438   -0.646077   -0.811050
C     -6.420479   -0.024654   -0.196200
C     -7.714695   -0.218776   -0.728184
C     -5.927583    0.728660    0.908827
C     -6.556344    1.544883    1.875283
C     -5.799495    2.135446    2.889598
C     -4.431639    1.911411    2.962174
C     -3.785672    1.110386    2.015844
C     -4.543799    0.546651    0.967102
N     -4.186332   -0.289213   -0.093440
C     -2.861175   -0.702308   -0.402020
C     -2.595640   -2.018706   -0.745548
N     -1.359670   -2.470861   -1.045527
C     -0.347087   -1.567807   -0.994434
C     -0.488829   -0.215445   -0.670825
C      0.673498    0.685916   -0.657434
C      0.599860    2.058482   -0.876097
N      1.678564    2.877299   -0.837090
C      2.862913    2.268383   -0.584061
C      2.981105    0.897839   -0.400019
N      4.260836    0.305867   -0.145735
C      5.500398    0.772244   -0.603955
C      5.853615    1.775708   -1.533706
C      7.206714    2.038353   -1.770659
C      8.196080    1.311460   -1.125263
C      7.850157    0.281231   -0.249672
C      6.490067   -0.008880    0.000093
C      5.842297   -1.026689    0.756411
C      6.326989   -2.103700    1.532354
C      5.431585   -2.974272    2.156655
C      4.064108   -2.783388    2.021300
C      3.560559   -1.722409    1.262707
C      4.463549   -0.848965    0.619415
N      1.876949    0.101736   -0.416124
C     -1.793650    0.204681   -0.363447
H     -8.887275   -1.146661   -2.278139
H     -6.938880   -2.173045   -3.397273
H     -4.663200   -1.844401   -2.518272
H     -8.575061    0.247671   -0.256246
H     -7.630276    1.705929    1.839139
H     -6.288801    2.758151    3.634361
H     -3.855687    2.354940    3.771554
H     -2.721707    0.921005    2.119451
H     -3.364662   -2.786309   -0.754202
H      0.628702   -1.984659   -1.240707
H     -0.335834    2.559643   -1.099131
H      3.696865    2.953384   -0.486590
H      5.109854    2.334653   -2.093410
H      7.485873    2.815474   -2.479170
H      9.243993    1.524168   -1.321168
H      8.629777   -0.311514    0.221182
H      7.396460   -2.261230    1.640682
H      5.808587   -3.803324    2.749827
H      3.371877   -3.463035    2.513311
H      2.485683   -1.589644    1.188303
H     -1.985872    1.245977   -0.117566
