94

C      7.878663   -1.118031    2.044416
C      7.265511   -0.046897    1.105299
C      8.205928    1.184191    1.030569
C      7.151674   -0.650242   -0.301636
C      8.317134   -1.106772   -0.967278
C      8.267119   -1.660169   -2.244231
C      7.048618   -1.771205   -2.889303
C      5.888920   -1.328519   -2.251966
C      5.910363   -0.762921   -0.954225
N      4.697790   -0.315518   -0.321008
C      3.448040   -0.450647   -1.012591
C      2.689455   -1.625028   -0.877243
C      1.472015   -1.757868   -1.545530
C      1.009727   -0.706876   -2.344262
S     -0.545584   -0.878282   -3.187533
O     -0.692978   -2.277608   -3.543470
O     -0.617890    0.149441   -4.210156
C     -1.797361   -0.494168   -1.983253
C     -2.484444   -1.527535   -1.341714
C     -3.471574   -1.214692   -0.400299
N     -4.212056   -2.263690    0.225995
C     -4.517642   -2.336606    1.586013
C     -4.145172   -1.523178    2.675687
C     -4.601729   -1.852939    3.955001
C     -5.391613   -2.975683    4.159724
C     -5.726045   -3.805414    3.087241
C     -5.273933   -3.493805    1.785628
C     -5.409518   -4.148063    0.526939
C     -6.052849   -5.340272    0.126001
C     -6.042776   -5.721679   -1.217314
C     -5.414189   -4.926097   -2.164879
C     -4.770038   -3.742176   -1.793355
C     -4.747883   -3.374832   -0.430596
C     -3.761086    0.127907   -0.103528
C     -3.087393    1.156922   -0.781952
N     -3.435563    2.522236   -0.546684
C     -3.636660    3.101272    0.707351
C     -3.487638    2.588342    2.012133
C     -3.753531    3.421427    3.102623
C     -4.136907    4.741497    2.911153
C     -4.244234    5.262365    1.619811
C     -3.978326    4.440068    0.502252
C     -3.963300    4.683463   -0.901815
C     -4.217485    5.833148   -1.682541
C     -4.156435    5.758926   -3.075729
C     -3.860405    4.554843   -3.699083
C     -3.603911    3.403401   -2.948850
C     -3.628399    3.486371   -1.539812
C     -2.099887    0.845157   -1.722672
C      1.760447    0.461930   -2.502420
C      2.977467    0.588942   -1.831708
C      4.719497    0.263736    0.996378
C      3.526496    0.705510    1.617931
C      3.517936    1.271054    2.893458
C      4.706880    1.410329    3.586371
C      5.895099    0.983380    2.998956
C      5.926794    0.406879    1.704233
H      8.029192   -0.743468    3.062816
H      8.859909   -1.462878    1.700342
H      7.228193   -1.999228    2.113041
H      8.367682    1.646516    2.010388
H      9.200325    0.927644    0.649196
H      7.791431    1.955866    0.369512
H      9.291725   -1.034119   -0.489171
H      9.177730   -2.001032   -2.729065
H      6.991493   -2.199840   -3.886062
H      4.956250   -1.436405   -2.799481
H      3.059086   -2.434324   -0.251202
H      0.900701   -2.677678   -1.441582
H     -2.228075   -2.563491   -1.556705
H     -3.498264   -0.663972    2.546446
H     -4.326705   -1.226846    4.800809
H     -5.738759   -3.221834    5.160005
H     -6.325208   -4.695437    3.258653
H     -6.563273   -5.958700    0.859033
H     -6.541400   -6.638304   -1.521866
H     -5.428392   -5.220958   -3.211987
H     -4.314901   -3.124973   -2.562019
H     -4.580539    0.369343    0.572293
H     -3.153523    1.572984    2.187508
H     -3.650294    3.031999    4.112909
H     -4.339548    5.379156    3.767926
H     -4.522917    6.302899    1.478109
H     -4.469420    6.774676   -1.202572
H     -4.356277    6.645122   -3.672617
H     -3.835864    4.501330   -4.785443
H     -3.408059    2.468789   -3.466073
H     -1.547901    1.631905   -2.234042
H      1.413663    1.272201   -3.140053
H      3.569666    1.494649   -1.944135
H      2.568267    0.617011    1.113522
H      2.582233    1.599556    3.336946
H      4.714945    1.849108    4.580282
H      6.811692    1.107404    3.571813
