80

F     -3.408901    6.503018    0.490087
C     -2.610419    5.608527    1.134588
F     -2.714628    5.900454    2.461041
F     -1.332886    5.925148    0.783844
C     -2.978227    4.179264    0.813890
C     -2.358375    3.503186   -0.249129
C     -2.710935    2.187654   -0.560720
C     -3.701950    1.539819    0.184292
N     -4.046685    0.188846   -0.097050
C     -3.142001   -0.870415   -0.201568
C     -1.679584   -0.782128   -0.161424
C     -1.005911   -0.248470    0.942588
C      0.391842   -0.180851    0.955422
C      1.151295   -0.657884   -0.124992
C      2.621285   -0.586212   -0.109322
C      3.327009    0.023452   -1.159273
C      4.724228    0.096980   -1.146776
C      5.443946   -0.447396   -0.078758
N      6.869432   -0.377544   -0.063571
C      7.626389    0.749153   -0.395762
C      7.249517    2.064097   -0.743382
C      8.247741    3.005871   -1.010068
C      9.590076    2.665149   -0.916642
C      9.963424    1.374245   -0.535959
C      8.973406    0.405321   -0.258144
C      9.035364   -0.950897    0.176007
C     10.109395   -1.818565    0.475612
C      9.856222   -3.140168    0.849802
C      8.551999   -3.610667    0.915374
C      7.472244   -2.770859    0.626690
C      7.725857   -1.425024    0.285648
C      4.758301   -1.061310    0.973762
C      3.360730   -1.125526    0.955783
C      0.465851   -1.215018   -1.216156
C     -0.931454   -1.283721   -1.231496
N     -3.779724   -2.021263   -0.245546
C     -5.118593   -1.726438   -0.189239
C     -6.213353   -2.619563   -0.144772
C     -5.934971   -4.001648   -0.081994
C     -6.970000   -4.926853   -0.010211
C     -8.283999   -4.480401   -0.001707
C     -8.562785   -3.109300   -0.072878
C     -7.539528   -2.127956   -0.151869
C     -7.758723   -0.715662   -0.268251
C     -9.052386   -0.142659   -0.349696
C     -9.259116    1.227058   -0.533755
C     -8.174255    2.076720   -0.662342
C     -6.883458    1.562148   -0.574071
C     -6.653792    0.185446   -0.335524
C     -5.334059   -0.350699   -0.200766
C     -4.329789    2.202978    1.246499
C     -3.971519    3.517689    1.553191
H     -1.591645    4.001790   -0.841775
H     -2.219097    1.698652   -1.399243
H     -1.558865    0.116137    1.805279
H      0.887116    0.254846    1.821301
H      2.788079    0.452544   -2.002029
H      5.229785    0.545178   -1.998892
H      6.207401    2.364674   -0.789826
H      7.966921    4.020139   -1.284649
H     10.355473    3.408354   -1.124728
H     11.015856    1.120851   -0.444365
H     11.133688   -1.463373    0.405959
H     10.686034   -3.805176    1.074861
H      8.365870   -4.647763    1.185251
H      6.463780   -3.172163    0.651701
H      5.286548   -1.460276    1.836534
H      2.848304   -1.609334    1.785633
H      1.019520   -1.621782   -2.060408
H     -1.435366   -1.739954   -2.081650
H     -4.904264   -4.353155   -0.081941
H     -6.749095   -5.989254    0.041524
H     -9.100205   -5.196199    0.055727
H     -9.610831   -2.824046   -0.069574
H     -9.942522   -0.762640   -0.288456
H    -10.270877    1.618883   -0.600405
H     -8.327701    3.137719   -0.840773
H     -6.066095    2.257412   -0.731605
H     -5.084058    1.705774    1.854776
H     -4.467301    4.025039    2.380465
