54

C      5.472469    0.937966   -0.201230
C      4.776369    1.154449   -1.386263
C      3.453604    0.718248   -1.512403
C      2.795041    0.060016   -0.456312
N      1.424481   -0.393841   -0.590753
C      0.521203    0.296109   -1.482579
C     -0.274460   -0.414959   -2.397296
C     -1.164333    0.253047   -3.241828
C     -1.271849    1.640819   -3.185458
C     -0.489038    2.363219   -2.288105
C      0.402533    1.696636   -1.445118
C      0.979485   -1.604416    0.069686
C      1.802231   -2.751739   -0.004285
C      1.400768   -3.981882    0.523395
C      0.157981   -4.104748    1.132878
C     -0.682368   -2.997369    1.220897
C     -0.278402   -1.751663    0.702596
N     -1.178732   -0.662654    0.884601
C     -0.908366    0.506848    1.590671
C      0.231767    0.919902    2.304838
C      0.227115    2.180143    2.908176
C     -0.887737    3.004398    2.824542
C     -2.032416    2.576757    2.146348
C     -2.051841    1.306185    1.529920
C     -3.053005    0.579618    0.819077
C     -4.389649    0.866047    0.464740
C     -5.135680   -0.070886   -0.255881
C     -4.567919   -1.281634   -0.632669
C     -3.247253   -1.588998   -0.294765
C     -2.504512   -0.649569    0.449443
C      3.526132   -0.154545    0.727104
C      4.848738    0.281775    0.855259
H      6.500161    1.277203   -0.102755
H      5.260033    1.659186   -2.218471
H      2.947288    0.882717   -2.460698
H     -0.202417   -1.497452   -2.459639
H     -1.779140   -0.312367   -3.936571
H     -1.972864    2.158574   -3.834431
H     -0.581173    3.444173   -2.230423
H      0.981067    2.272290   -0.726274
H      2.762092   -2.698937   -0.515255
H      2.057622   -4.844499    0.444334
H     -0.156041   -5.060644    1.544448
H     -1.640342   -3.104924    1.727038
H      1.101907    0.280632    2.390004
H      1.108071    2.515875    3.450006
H     -0.876613    3.982092    3.299017
H     -2.907841    3.217918    2.102539
H     -4.837748    1.814043    0.747567
H     -6.163117    0.155143   -0.529002
H     -5.153575   -1.996434   -1.205820
H     -2.807541   -2.526462   -0.621191
H      3.069652   -0.659422    1.573699
H      5.388162    0.108016    1.782650
