112

C      6.249464    1.401301   -5.189280
C      5.005867    1.447493   -5.814684
C      3.859279    1.048694   -5.122367
C      3.936788    0.595769   -3.795040
C      2.731051    0.175152   -3.064304
C      1.639682    1.037631   -2.919425
C      0.489882    0.662912   -2.214573
C      0.451857   -0.608208   -1.614089
C      1.495744   -1.516016   -1.786670
C      2.644906   -1.111186   -2.502794
C      1.110967   -2.742223   -1.168805
C      1.743326   -3.999940   -1.041883
C      1.119225   -5.059584   -0.360455
C      1.787956   -6.363994   -0.223967
C      1.155862   -7.548581   -0.637134
C      1.790734   -8.786891   -0.507742
C      3.069461   -8.861171    0.038661
C      3.713915   -7.699072    0.454917
C      3.078154   -6.461457    0.323961
C     -0.146971   -4.838332    0.192129
C     -0.797772   -3.602879    0.084121
C     -0.157730   -2.562641   -0.616225
N     -0.513687   -1.229891   -0.826144
C     -1.698050   -0.611201   -0.325929
C     -2.925871   -1.213890   -0.640009
C     -4.132590   -0.619070   -0.294449
N     -5.288492   -1.218790   -0.616860
C     -6.459118   -0.622707   -0.276042
C     -7.684478   -1.223963   -0.598685
C     -7.730208   -2.457726   -1.283930
C     -8.939962   -3.055528   -1.605359
C    -10.087295   -2.400081   -1.230677
N    -10.086829   -1.221904   -0.575572
C     -8.912246   -0.621635   -0.252618
C     -8.907490    0.600808    0.427313
N    -10.077292    1.198664    0.771466
C    -10.067984    2.376345    1.427642
C     -8.915250    3.033569    1.782293
C     -7.710397    2.438358    1.438636
C     -7.674863    1.205379    0.751468
C     -6.454338    0.607064    0.406049
N     -5.279185    1.205958    0.725080
C     -4.128088    0.609405    0.381035
C     -2.917308    1.208461    0.703921
C     -1.693418    0.610965    0.366069
N     -0.501657    1.234017    0.843302
C      0.485892    0.612685    1.603662
C      0.544119   -0.661243    2.195679
C      1.716495   -1.039068    2.859731
C      2.810889   -0.175680    2.977469
C      4.041402   -0.606008    3.661363
C      4.582927    0.140501    4.720884
C      5.751377   -0.270559    5.368175
C      6.398965   -1.435786    4.965148
C      5.879303   -2.190393    3.916421
C      4.710409   -1.778484    3.270924
C      2.701654    1.116858    2.433832
C      1.530119    1.523674    1.755284
C      1.121775    2.753634    1.159965
C      1.742086    4.017138    1.030679
C      1.095217    5.078133    0.373104
C      1.749502    6.389669    0.239548
C      2.204340    7.089125    1.369766
C      2.826556    8.334113    1.244049
C      3.005599    8.899866   -0.015777
C      2.563147    8.222413   -1.149209
C      1.939982    6.978084   -1.021743
C     -0.179536    4.851972   -0.156893
C     -0.818811    3.610844   -0.045999
C     -0.157674    2.569904    0.633602
C      5.200489    0.556912   -3.182668
C      6.347663    0.956683   -3.873129
H      7.141305    1.712377   -5.726751
H      4.925885    1.791804   -6.842369
H      2.898239    1.082659   -5.631495
H      1.679661    2.037913   -3.348390
H     -0.339171    1.358240   -2.134987
H      3.463718   -1.814794   -2.632490
H      2.724844   -4.143929   -1.487621
H      0.161649   -7.511440   -1.077891
H      1.286305   -9.691548   -0.837015
H      3.563530   -9.823943    0.139410
H      4.711050   -7.753733    0.883803
H      3.595212   -5.566689    0.664835
H     -0.641393   -5.636684    0.744395
H     -1.764153   -3.465159    0.559411
H     -2.962346   -2.141362   -1.209518
H     -6.807909   -2.960548   -1.572336
H     -8.980482   -4.001964   -2.131340
H    -11.070109   -2.807766   -1.448577
H    -11.047303    2.782199    1.663796
H     -8.947918    3.979498    2.309948
H     -6.783826    2.942422    1.710858
H     -2.946927    2.135213    1.275018
H     -0.287825   -1.355701    2.142489
H      1.762493   -2.035195    3.298085
H      4.086415    1.048010    5.058533
H      6.152340    0.319202    6.188309
H      7.307745   -1.755426    5.468071
H      6.383225   -3.098821    3.597417
H      4.325692   -2.375418    2.446037
H      3.529307    1.816140    2.523957
H      2.741804    4.158382    1.434904
H      2.065655    6.668455    2.363770
H      3.169339    8.860608    2.130934
H      3.490914    9.867232   -0.114428
H      2.705775    8.658655   -2.134353
H      1.613375    6.459096   -1.920712
H     -0.700393    5.658281   -0.671892
H     -1.796408    3.471951   -0.497238
H      5.295630    0.224117   -2.150671
H      7.315624    0.923289   -3.380124
