85

C      9.962228   -1.363041   -0.989660
C      8.902855   -0.818813   -1.931622
N      7.841622   -0.128362   -1.230076
C      7.775930    1.216733   -0.927158
C      8.694081    2.249842   -1.184473
C      8.396219    3.536982   -0.728731
C      7.224238    3.791883   -0.026669
C      6.310661    2.764351    0.228372
C      6.576827    1.462834   -0.241747
C      5.907433    0.199819   -0.187519
C      6.719689   -0.743630   -0.731526
C      6.124305   -2.022946   -0.584718
C      6.503988   -3.335098   -0.927851
C      5.633653   -4.394286   -0.662615
C      4.396501   -4.156847   -0.078908
C      4.004193   -2.860766    0.271287
C      4.892477   -1.787259    0.045010
N      4.750243   -0.411606    0.275374
C      3.633319    0.246508    0.854838
C      3.170511    1.445671    0.297322
C      2.069734    2.098466    0.855896
C      1.432175    1.542666    1.967785
S      0.036219    2.372177    2.693567
O      0.086510    2.121420    4.122849
O      0.017967    3.733440    2.188829
C     -1.407025    1.556103    2.049837
C     -2.072447    0.602984    2.825477
C     -3.208105   -0.029335    2.314325
C     -3.680588    0.303102    1.038118
N     -4.833596   -0.336729    0.511389
C     -5.148267   -1.701216    0.583555
C     -4.436100   -2.787988    1.135730
C     -4.978182   -4.074549    1.048580
C     -6.191111   -4.295471    0.409967
C     -6.884709   -3.233796   -0.174847
C     -6.352358   -1.931902   -0.099541
C     -6.752436   -0.662286   -0.590899
C     -5.858693    0.280346   -0.192757
C     -6.341204    1.565064   -0.597069
C     -5.932576    2.900084   -0.405418
C     -6.674721    3.939203   -0.976180
C     -7.816293    3.666161   -1.720240
C     -8.255131    2.352050   -1.904409
C     -7.509789    1.307589   -1.329219
N     -7.739340   -0.053795   -1.327018
C     -8.834040   -0.759490   -1.958650
C    -10.024058   -0.933037   -1.031109
C     -3.016514    1.271789    0.274057
C     -1.878829    1.902781    0.780719
C      1.896757    0.355075    2.540388
C      2.996036   -0.297026    1.977669
H     10.745216   -1.876873   -1.555666
H      9.533509   -2.075114   -0.277117
H     10.429891   -0.557283   -0.414254
H      9.350681   -0.118962   -2.644843
H      8.454245   -1.624503   -2.521821
H      9.623261    2.062849   -1.713256
H      9.098050    4.346390   -0.915649
H      7.017243    4.796090    0.335245
H      5.414899    2.981417    0.801248
H      7.460930   -3.531976   -1.400631
H      5.921796   -5.408108   -0.928886
H      3.717935   -4.987525    0.101364
H      3.017037   -2.703159    0.693389
H      3.633651    1.867659   -0.592696
H      1.719717    3.030059    0.415953
H     -1.727052    0.355775    3.827242
H     -3.739901   -0.738963    2.944616
H     -3.469783   -2.652518    1.610632
H     -4.436399   -4.913265    1.480292
H     -6.597344   -5.302207    0.351509
H     -7.823357   -3.422405   -0.686041
H     -5.060028    3.138608    0.193865
H     -6.358411    4.969029   -0.828427
H     -8.384364    4.485904   -2.154453
H     -9.160377    2.156702   -2.470342
H     -9.127205   -0.200908   -2.853708
H     -8.461727   -1.730198   -2.301960
H     -9.751694   -1.502127   -0.136169
H    -10.829350   -1.468373   -1.543412
H    -10.413518    0.036666   -0.703142
H     -3.351666    1.522430   -0.730691
H     -1.371563    2.656337    0.181768
H      1.423025   -0.059689    3.427724
H      3.372393   -1.197604    2.458007
