66

C     -3.092005   -4.267197   -0.000303
C     -2.771822   -3.648259    1.206097
C     -2.129012   -2.408688    1.206256
C     -1.795376   -1.771364   -0.000089
C     -1.116634   -0.447414    0.000001
C     -1.900980    0.731029    0.000058
C     -3.382318    0.630932    0.000100
C     -4.098970    0.589437   -1.207155
C     -5.492512    0.502827   -1.206640
C     -6.187882    0.459332    0.000183
C     -5.492449    0.502942    1.206965
C     -4.098908    0.589548    1.207397
C     -1.264857    1.998072    0.000040
C     -2.029264    3.188212    0.000083
C     -1.451122    4.451438    0.000025
C     -0.071844    4.578738   -0.000088
C      0.507740    5.856519   -0.000179
C      1.888467    6.004928   -0.000303
C      2.695119    4.874213   -0.000314
C      2.127368    3.589444   -0.000211
C      2.941604    2.469931   -0.000180
C      2.420629    1.157738   -0.000058
C      3.468634    0.119604    0.000111
C      4.027567   -0.333739   -1.206179
C      5.084357   -1.247115   -1.205987
C      5.609017   -1.705824    0.000479
C      5.084226   -1.246791    1.206760
C      4.027426   -0.333428    1.206588
C      0.990859    0.924816   -0.000037
C      0.315039   -0.360880   -0.000020
C      1.054555   -1.647526   -0.000036
C      1.367826   -2.296235    1.206583
C      1.993712   -3.544830    1.206312
C      2.308063   -4.166740   -0.000063
C      1.993824   -3.544755   -1.206427
C      1.367947   -2.296156   -1.206672
C      0.158422    2.095363   -0.000037
C      0.733644    3.411250   -0.000111
C     -2.128398   -2.408803   -1.206545
C     -2.771167   -3.648391   -1.206600
H     -3.591489   -5.232047   -0.000388
H     -3.021295   -4.129243    2.147610
H     -1.885035   -1.936543    2.154618
H     -3.567255    0.620885   -2.155503
H     -6.033509    0.465307   -2.148251
H     -7.272264    0.387478    0.000218
H     -6.033389    0.465512    2.148612
H     -3.567153    0.621083    2.155719
H     -3.117912    3.153689    0.000158
H     -2.097410    5.325833    0.000062
H     -0.115970    6.747883   -0.000161
H      2.333597    6.995865   -0.000390
H      3.775842    5.000934   -0.000406
H      4.024805    2.601281   -0.000212
H      3.633857    0.024521   -2.154640
H      5.495121   -1.600314   -2.147579
H      6.427436   -2.420356    0.000622
H      5.494895   -1.599723    2.148496
H      3.633614    0.025092    2.154910
H      1.117492   -1.827181    2.154767
H      2.233043   -4.030772    2.147607
H      2.795511   -5.137445   -0.000071
H      2.233244   -4.030633   -2.147734
H      1.117715   -1.827035   -2.154850
H     -1.883924   -1.936743   -2.154826
H     -3.020093   -4.129500   -2.148191
