78

N     -1.988091    0.948252    2.858382
C     -1.330656    0.343332    2.117693
C     -0.475068   -0.392951    1.227882
C      0.875720   -0.010129    1.146779
C      1.811650   -0.715248    0.360006
C      3.226438   -0.290673    0.280900
N      3.583900    0.794547    0.965382
C      4.867254    1.142234    0.861309
C      5.319148    2.340665    1.599942
C      4.429993    3.101907    2.384746
C      4.856080    4.236148    3.084031
C      6.186010    4.638186    3.015389
C      7.088789    3.908058    2.249203
C      6.659082    2.774340    1.551237
N      5.768822    0.481929    0.134262
C      5.313912   -0.590201   -0.514713
C      6.274069   -1.357573   -1.336787
C      5.878405   -2.502575   -2.056777
C      6.785742   -3.229297   -2.835113
C      8.115267   -2.827430   -2.912627
C      8.537481   -1.701327   -2.213560
C      7.627286   -0.977142   -1.436313
N      4.050451   -1.016223   -0.473521
C      1.341306   -1.841991   -0.342071
C      0.003066   -2.242232   -0.276694
C     -0.907044   -1.507084    0.492433
N     -2.253918   -1.948369    0.541725
C     -2.633250   -3.189208    1.075434
C     -1.865690   -4.292633    1.503706
C     -2.522411   -5.393620    2.061317
C     -3.902968   -5.399307    2.213111
C     -4.662132   -4.296355    1.814715
C     -4.026593   -3.173291    1.242464
C     -4.509598   -1.922821    0.759534
C     -5.806797   -1.311570    0.672354
C     -5.935866   -0.053874    0.067260
C     -6.873436    0.981242   -0.301297
C     -8.263727    1.132710   -0.126587
C     -8.904077    2.274824   -0.619974
C     -8.188129    3.267474   -1.286555
C     -6.807879    3.161760   -1.487485
C     -6.157946    2.022438   -0.994033
N     -4.883286    1.586956   -1.000325
C     -3.707117    1.991140   -1.522256
C     -3.315318    3.119069   -2.258159
C     -1.991798    3.195708   -2.695829
C     -1.086667    2.174212   -2.430313
C     -1.468035    1.044347   -1.695982
C     -2.778765    0.932350   -1.187451
C     -3.525892   -0.051811   -0.401726
C     -3.383810   -1.249283    0.259305
C     -4.776788    0.436781   -0.409866
H      1.208108    0.857041    1.720684
H      3.382442    2.814361    2.459618
H      4.145870    4.802666    3.681307
H      6.518167    5.519129    3.558440
H      8.129321    4.217475    2.192061
H      7.389921    2.224099    0.960596
H      4.845063   -2.842942   -2.016681
H      6.450519   -4.108619   -3.379320
H      8.821455   -3.390964   -3.516820
H      9.575252   -1.382521   -2.270184
H      7.988748   -0.100372   -0.900997
H      2.025050   -2.423892   -0.960372
H     -0.319333   -3.109393   -0.851322
H     -0.783134   -4.301514    1.422794
H     -1.941919   -6.252521    2.391097
H     -4.397125   -6.261459    2.654135
H     -5.740292   -4.304434    1.949043
H     -6.676252   -1.827924    1.067298
H     -8.836675    0.367533    0.389509
H     -9.976854    2.387743   -0.480171
H     -8.713433    4.144913   -1.658846
H     -6.269910    3.946189   -2.007551
H     -4.013570    3.914270   -2.494957
H     -1.669304    4.062018   -3.269875
H     -0.068737    2.247318   -2.807342
H     -0.740496    0.255413   -1.556633
