56

C      0.198512    1.758924   -1.427710
C      0.031685    0.992560   -0.092580
C     -0.078473    2.001312    1.077028
C      1.294652    0.130825    0.130473
C      2.576045    0.714600    0.215647
C      3.715375   -0.066111    0.417228
C      3.597351   -1.445077    0.537678
C      2.339707   -2.040289    0.456314
C      1.189509   -1.264406    0.253987
N     -0.060097   -1.882454    0.175678
C     -1.268547   -1.211760   -0.022916
C     -2.466694   -1.937326   -0.085200
C     -3.684633   -1.289091   -0.282697
C     -3.714499    0.093023   -0.419899
C     -2.526911    0.823881   -0.359296
C     -1.284528    0.186059   -0.160053
O     -0.310149    1.794655   -2.060493
S     -0.096033    1.594894   -0.637936
O      0.037222    2.738721    0.247124
C      1.367491    0.601812   -0.453508
C      2.127902    0.702221    0.715261
C      3.280664   -0.071131    0.850372
C      3.671878   -0.928849   -0.179414
C      2.916857   -1.013099   -1.350745
C      1.762669   -0.243498   -1.494557
C     -1.440027    0.602852   -0.028249
C     -1.789621    0.671493    1.323626
C     -2.851019   -0.100019    1.796193
C     -3.560289   -0.924341    0.920643
C     -3.216392   -0.976716   -0.431463
C     -2.156447   -0.208638   -0.912865
H     -0.646660    2.425605   -1.631718
H      0.278905    1.064115   -2.273106
H      1.095266    2.388351   -1.435462
H      0.808318    2.639480    1.159317
H     -0.933649    2.676680    0.963173
H     -0.197570    1.481089    2.035728
H      2.701542    1.790817    0.125285
H      4.692773    0.404985    0.479703
H      4.480790   -2.057509    0.694677
H      2.261358   -3.119630    0.552170
H     -0.092170   -2.886593    0.269392
H     -2.457380   -3.018536    0.020572
H     -4.605948   -1.862867   -0.329053
H     -4.660466    0.605342   -0.574213
H     -2.583563    1.903999   -0.470147
H      1.836614    1.377890    1.516258
H      3.879683   -0.001346    1.755344
H      4.573761   -1.527330   -0.072345
H      3.233592   -1.674281   -2.153971
H      1.186803   -0.304235   -2.415240
H     -1.250117    1.321499    2.008743
H     -3.131582   -0.054712    2.845899
H     -4.390220   -1.521441    1.291738
H     -3.780490   -1.611808   -1.110515
H     -1.902750   -0.244592   -1.969901
