104

C     -7.999509    1.266174   -0.035863
C     -7.031259    2.475627   -0.107529
C     -7.844733    3.792786   -0.201163
C     -6.187507    2.340558   -1.382715
C     -6.826080    2.300483   -2.647645
C     -6.105207    2.181721   -3.833289
C     -4.725244    2.098905   -3.784163
C     -4.076584    2.135483   -2.549423
C     -4.784097    2.256245   -1.329032
N     -4.088072    2.293762   -0.069967
C     -2.654813    2.209571   -0.050289
C     -1.880899    3.370810   -0.098790
C     -0.484288    3.309145   -0.073296
C      0.140095    2.047323    0.023652
C     -0.615397    0.872498    0.027965
C     -2.024667    0.956378    0.005824
C      0.288792   -0.228013    0.043607
C      0.095743   -1.626703    0.050585
C      1.200937   -2.490391    0.101969
N      1.002778   -3.912349    0.112560
C      0.944831   -4.627946   -1.134746
C      1.080522   -3.950234   -2.370362
C      1.029168   -4.618287   -3.594199
C      0.839915   -5.988279   -3.616625
C      0.702944   -6.680062   -2.415614
C      0.752116   -6.021347   -1.161328
C      0.595448   -6.832827    0.132192
C     -0.785353   -7.538196    0.097693
C      1.725030   -7.894417    0.179168
C      0.671728   -5.992495    1.414790
C      0.542894   -6.622968    2.678054
C      0.599762   -5.903937    3.869416
C      0.786371   -4.533995    3.828270
C      0.915824   -3.893614    2.595385
C      0.863946   -4.599621    1.369232
C      2.490726   -1.959067    0.156746
C      2.703512   -0.577052    0.149913
C      1.588774    0.284420    0.063526
N      1.487403    1.678606    0.058862
C      2.589900    2.586334    0.098870
C      2.547248    3.706177    0.940723
C      3.630995    4.587064    0.993702
C      4.759588    4.351355    0.201565
C      4.803399    3.243901   -0.636548
C      3.720762    2.355780   -0.694272
S      6.225944    2.913513   -1.627375
O      6.315564    1.468345   -1.720265
O      6.122112    3.745291   -2.804657
C      7.659387    3.436650   -0.743160
C      8.844453    2.704791   -0.881923
C      9.982474    3.089682   -0.171923
C      9.938139    4.197570    0.675378
C      8.755628    4.925652    0.815072
C      7.615374    4.541496    0.100160
S      6.126171    5.463729    0.307422
O      6.139687    5.950667    1.674215
O      6.023359    6.365533   -0.817454
C     -4.806158    2.416457    1.171106
C     -4.120337    2.447291    2.409511
C     -4.790096    2.571401    3.627452
C     -6.170017    2.665338    3.641134
C     -6.870114    2.633317    2.437479
C     -6.209786    2.509127    1.188985
H     -8.648933    1.198327   -0.915578
H     -7.444459    0.322049    0.034445
H     -8.667659    1.317233    0.830849
H     -8.492251    3.821683   -1.084452
H     -8.502942    3.939685    0.662217
H     -7.178270    4.663088   -0.255801
H     -7.909600    2.363262   -2.722531
H     -6.622548    2.155092   -4.787957
H     -4.147069    2.005505   -4.699138
H     -2.991715    2.067157   -2.561157
H     -2.373992    4.338459   -0.165454
H      0.087827    4.228902   -0.146587
H     -2.628350    0.052601    0.022004
H     -0.908533   -2.041777    0.024790
H      1.230727   -2.874121   -2.403369
H      1.137599   -4.062542   -4.521506
H      0.798315   -6.520596   -4.562648
H      0.554474   -7.756399   -2.469866
H     -0.901842   -8.187610   -0.777180
H     -0.949892   -8.176436    0.972894
H     -1.600935   -6.804057    0.070883
H      1.706788   -8.562360   -0.688853
H      2.712539   -7.416713    0.203736
H      1.653774   -8.541538    1.060106
H      0.392734   -7.698245    2.746650
H      0.497346   -6.415212    4.822608
H      0.830977   -3.957304    4.747711
H      1.058113   -2.816174    2.613008
H      3.343641   -2.632463    0.212486
H      3.719100   -0.201226    0.224371
H      1.697534    3.887417    1.597174
H      3.587978    5.447944    1.660221
H      3.752948    1.516179   -1.388183
H      8.891548    1.838564   -1.540836
H     10.907241    2.525904   -0.280442
H     10.828423    4.495534    1.226014
H      8.733981    5.789794    1.477894
H     -3.036651    2.373498    2.448848
H     -4.228256    2.592414    4.557206
H     -6.704502    2.762111    4.582258
H     -7.954436    2.707220    2.484601
