68

C     -6.964121    1.268202    0.000466
C     -6.071435   -0.000074   -0.000143
C     -6.963841   -1.268543   -0.000915
C     -5.237330   -0.000685    1.288579
C     -5.888397   -0.001383    2.547950
C     -5.176825   -0.001927    3.745115
C     -3.793986   -0.001798    3.713550
C     -3.133119   -0.001139    2.484626
C     -3.830875   -0.000573    1.252702
N     -3.122072    0.000103    0.000126
C     -1.688266    0.000088    0.000243
C     -0.978976    1.206227    0.000857
C      0.420575    1.202444    0.000875
C      1.156370    0.000045    0.000285
C      2.635642    0.000018    0.000241
N      3.256394    1.179671    0.000492
C      4.588772    1.127962    0.000404
C      5.328095    2.408745    0.000618
C      4.656396    3.647586    0.000558
C      5.354060    4.860186    0.000740
C      6.745174    4.863543    0.000993
C      7.437969    3.657201    0.001063
C      6.736791    2.446623    0.000875
N      5.299647   -0.000042    0.000106
C      4.588722   -1.128014   -0.000143
C      5.327983   -2.408833   -0.000536
C      4.656223   -3.647640   -0.001094
C      5.353826   -4.860274   -0.001485
C      6.744940   -4.863700   -0.001322
C      7.437794   -3.657394   -0.000769
C      6.736677   -2.446783   -0.000384
N      3.256343   -1.179661   -0.000090
C      0.420538   -1.202331   -0.000289
C     -0.979012   -1.206071   -0.000314
C     -3.830651    0.000773   -1.252582
C     -3.132670    0.001507   -2.484382
C     -3.793311    0.002181   -3.713429
C     -5.176143    0.002127   -3.745244
C     -5.887934    0.001399   -2.548206
C     -5.237097    0.000717   -1.288714
H     -7.621244    1.316914   -0.874655
H     -7.621374    1.315985    0.875542
H     -6.352441    2.179272    0.000994
H     -7.620916   -1.316471   -0.876117
H     -7.621111   -1.317392    0.874087
H     -6.351964   -2.179479   -0.001326
H     -6.974598   -0.001506    2.609085
H     -5.703989   -0.002444    4.695104
H     -3.222829   -0.002208    4.637706
H     -2.046431   -0.001067    2.510460
H     -1.518934    2.149974    0.001298
H      0.938304    2.160452    0.001346
H      3.567889    3.678081    0.000352
H      4.807073    5.799593    0.000678
H      7.288483    5.804801    0.001134
H      8.524989    3.653382    0.001262
H      7.307374    1.519147    0.000935
H      3.567713   -3.678081   -0.001241
H      4.806793   -5.799653   -0.001919
H      7.288203   -5.804984   -0.001627
H      8.524815   -3.653629   -0.000638
H      7.307304   -1.519336    0.000043
H      0.938236   -2.160356   -0.000757
H     -1.518996   -2.149803   -0.000795
H     -2.045977    0.001574   -2.510023
H     -3.221984    0.002739   -4.637482
H     -5.703134    0.002647   -4.695330
H     -6.974123    0.001366   -2.609540
