78

C      3.457355    0.122979    2.406414
C      2.781238    0.363891    1.040548
C      2.612447    1.883192    0.842613
C      1.383266   -0.320387    1.116044
C      0.614748   -0.341285   -0.223534
C     -0.651173   -1.180486   -0.097791
C     -0.595785   -2.571693    0.058717
C     -1.766525   -3.315370    0.179253
C     -3.008749   -2.677165    0.146582
C     -3.116264   -1.282288   -0.006616
C     -4.432232   -0.607548   -0.039603
N     -4.447166    0.716682   -0.194186
C     -5.655694    1.279350   -0.217471
C     -5.729102    2.746590   -0.387385
C     -6.963923    3.425203   -0.409208
C     -7.035334    4.813081   -0.569925
C     -5.869683    5.558696   -0.713368
C     -4.634722    4.918541   -0.696232
C     -4.567361    3.530514   -0.535180
N     -6.802076    0.609244   -0.097915
C     -6.683730   -0.710323    0.052364
C     -7.925101   -1.502406    0.189249
C     -9.195401   -0.893087    0.158631
C    -10.370795   -1.640669    0.287924
C    -10.304324   -3.020535    0.451567
C     -9.065399   -3.652284    0.485939
C     -7.892219   -2.901297    0.356290
N     -5.522353   -1.364402    0.087666
C     -1.912526   -0.555845   -0.126512
C      1.492930   -0.800646   -1.357281
C      2.824858   -0.756766   -1.281287
N      3.749996   -1.167670   -2.196368
C      5.015606   -0.943426   -1.750044
C      6.220770   -1.185952   -2.289147
C      7.380190   -0.788986   -1.518083
C      7.265655   -0.129293   -0.207964
C      6.061619    0.117654    0.337340
C      4.886963   -0.306674   -0.411010
C      3.563987   -0.202474   -0.132396
C      8.609911    0.152905    0.271178
C      9.102140    0.749501    1.416562
C     10.489446    0.853740    1.550483
C     11.349596    0.365463    0.549574
C     10.839341   -0.236879   -0.605406
C      9.465171   -0.338710   -0.734748
C      8.680608   -0.916395   -1.833391
H      2.761954    0.329118    3.229329
H      4.316042    0.779865    2.567339
H      3.791797   -0.915402    2.511344
H      3.581942    2.395277    0.861309
H      1.995820    2.317562    1.637838
H      2.138123    2.125960   -0.114550
H      1.522056   -1.351039    1.475813
H      0.762732    0.175282    1.876059
H      0.311160    0.685765   -0.466800
H      0.363370   -3.085507    0.086510
H     -1.714510   -4.394550    0.299473
H     -3.905770   -3.286758    0.243646
H     -7.893802    2.869287   -0.299360
H     -8.003268    5.307628   -0.582622
H     -5.923630    6.636927   -0.838535
H     -3.720440    5.495770   -0.808266
H     -3.586082    3.058606   -0.526486
H     -9.280219    0.185094    0.031739
H    -11.335940   -1.141317    0.260233
H    -11.216570   -3.602628    0.552141
H     -9.006982   -4.730210    0.613585
H     -6.937782   -3.424619    0.387259
H     -1.958979    0.526601   -0.244852
H      1.014852   -1.182258   -2.254260
H      3.525929   -1.586403   -3.083264
H      6.340172   -1.646713   -3.259937
H      5.968550    0.621285    1.285909
H      8.439686    1.124939    2.187891
H     10.911147    1.317770    2.439357
H     12.425956    0.458331    0.676882
H     11.506144   -0.611425   -1.374424
H      9.106340   -1.348524   -2.723190
