44

C     -5.705608   -0.000263    0.000081
C     -5.008977   -0.000235   -1.207107
C     -3.612785   -0.000033   -1.207858
C     -2.896263    0.000133   -0.000028
C     -1.413483    0.000149   -0.000068
C     -0.707865   -1.242537   -0.000069
C     -1.374455   -2.497351   -0.000027
C     -0.690551   -3.712216   -0.000001
C      0.690431   -3.712238   -0.000042
C      1.374374   -2.497395   -0.000089
C      0.707822   -1.242562   -0.000088
C      1.413483    0.000099   -0.000097
C      2.896262    0.000046   -0.000036
C      3.612675   -0.000128    1.207862
C      5.008867   -0.000310    1.207234
C      5.705606   -0.000299    0.000106
C      5.008989   -0.000083   -1.207092
C      3.612796    0.000083   -1.207861
C      0.707869    1.242782   -0.000092
C      1.374464    2.497589   -0.000061
C      0.690554    3.712455   -0.000018
C     -0.690434    3.712483   -0.000015
C     -1.374383    2.497639   -0.000045
C     -0.707828    1.242809   -0.000068
C     -3.612692    0.000150    1.207856
C     -5.008882   -0.000055    1.207214
H     -6.792581   -0.000470    0.000126
H     -5.551450   -0.000410   -2.148901
H     -3.078627   -0.000035   -2.155968
H     -2.462399   -2.544765    0.000001
H     -1.241732   -4.648331    0.000047
H      1.241573   -4.648379   -0.000027
H      2.462316   -2.544836   -0.000120
H      3.078430   -0.000155    2.155926
H      5.551258   -0.000474    2.149074
H      6.792581   -0.000481    0.000160
H      5.551471   -0.000083   -2.148880
H      3.078655    0.000232   -2.155979
H      2.462410    2.544999   -0.000034
H      1.241740    4.648571    0.000043
H     -1.241579    4.648625    0.000031
H     -2.462327    2.545076   -0.000060
H     -3.078450    0.000280    2.155920
H     -5.551276   -0.000078    2.149051
