98

C    -10.324894    0.825595    1.134253
O     -9.109347    0.960376    1.859834
C     -7.953325    0.680512    1.185551
C     -6.785315    0.855266    1.929339
C     -5.531831    0.608328    1.360599
C     -5.418512    0.177175    0.029584
N     -4.127725   -0.076817   -0.563910
C     -3.941698   -1.217155   -1.428404
C     -3.167988   -1.123450   -2.595768
C     -2.992013   -2.232453   -3.429563
C     -3.581367   -3.458868   -3.119089
O     -3.328868   -4.459206   -4.016291
C     -3.903411   -5.730285   -3.740318
C     -4.351402   -3.568589   -1.962752
C     -4.529209   -2.457939   -1.127359
C     -3.020985    0.812643   -0.292469
C     -3.209561    2.200724   -0.249834
C     -2.153878    3.082657    0.008738
C     -0.875070    2.546243    0.243521
C     -0.642506    1.172202    0.190388
C     -1.726301    0.304013   -0.071982
C      0.745441    0.955751    0.442931
C      1.544926   -0.206593    0.526855
C      2.916786   -0.117427    0.831994
N      3.733639   -1.306993    0.912282
C      5.062745   -1.305549    0.349798
C      6.130354   -1.935256    1.008183
C      7.415633   -1.930322    0.456862
C      7.666365   -1.298777   -0.762057
O      8.963724   -1.370321   -1.187660
C      9.270021   -0.738461   -2.424083
C      6.617310   -0.668178   -1.427966
C      5.329496   -0.671579   -0.875906
C      3.218489   -2.493628    1.552452
C      2.452503   -2.409776    2.725741
C      1.956934   -3.562981    3.342450
C      2.211594   -4.825047    2.804480
O      1.670457   -5.866437    3.506004
C      1.904012   -7.173624    2.997629
C      2.968482   -4.925307    1.638737
C      3.466080   -3.770701    1.020448
C      3.469555    1.149365    1.062827
C      2.700344    2.315885    0.984966
C      1.339506    2.200968    0.647072
N      0.346100    3.165760    0.495825
C      0.530756    4.567535    0.655878
C     -0.210626    5.195879    1.668985
C     -0.027813    6.549358    1.919687
C      0.888011    7.277068    1.162117
C      1.622174    6.672742    0.127922
C      2.519313    7.440718   -0.633331
C      3.233142    6.878092   -1.689746
C      3.050996    5.539840   -2.006958
C      2.166015    4.761827   -1.257566
C      1.447358    5.294946   -0.156295
C     -6.602285    0.002487   -0.707563
C     -7.857698    0.251656   -0.136869
H    -10.481755   -0.210815    0.816645
H    -10.352537    1.509960    0.279789
H    -11.146515    1.096777    1.804186
H     -6.849468    1.185213    2.963298
H     -4.642970    0.739097    1.973143
H     -2.708016   -0.178775   -2.876753
H     -2.390523   -2.135432   -4.330210
H     -3.606070   -6.412852   -4.542073
H     -4.996985   -5.676546   -3.737497
H     -3.524675   -6.138737   -2.797950
H     -4.824619   -4.500900   -1.674382
H     -5.118580   -2.575768   -0.220420
H     -4.194554    2.620503   -0.445686
H     -2.330142    4.154574    0.008157
H     -1.551203   -0.768516   -0.086879
H      1.088469   -1.175607    0.343129
H      5.973940   -2.420281    1.968418
H      8.228344   -2.420849    0.986850
H     10.336954   -0.884236   -2.618696
H      8.715715   -1.196603   -3.249916
H      9.085330    0.339835   -2.373422
H      6.760176   -0.166635   -2.378829
H      4.524468   -0.187271   -1.424291
H      2.249089   -1.444067    3.181924
H      1.369537   -3.473576    4.253000
H      1.411808   -7.885609    3.667462
H      2.973201   -7.409705    2.989949
H      1.464414   -7.294479    2.001802
H      3.189664   -5.881980    1.178215
H      4.037844   -3.876767    0.101310
H      4.520351    1.242206    1.331535
H      3.156451    3.281309    1.185750
H     -0.901861    4.631340    2.291352
H     -0.587446    7.037694    2.713183
H      1.018643    8.335314    1.381454
H      2.663353    8.496585   -0.412589
H      3.919133    7.488959   -2.270268
H      3.590612    5.097016   -2.839974
H      2.035505    3.723489   -1.555702
H     -6.554549   -0.311757   -1.748256
H     -8.735166    0.103995   -0.756952
