54

C     -5.456306    0.977012   -3.449638
C     -4.520838    1.958647   -3.149951
C     -3.573118    1.716048   -2.158798
C     -3.592330    0.495411   -1.483361
C     -2.598447    0.172276   -0.448234
N     -1.296371    0.361258   -0.816624
C     -0.352334   -0.026505    0.062410
C      0.984696    0.129439   -0.265851
C      1.986539   -0.271645    0.616877
N      3.361042   -0.119533    0.293036
C      4.111042   -1.194511   -0.288471
C      3.546951   -2.447513   -0.587254
C      4.317552   -3.468171   -1.154857
C      5.664034   -3.255454   -1.436287
C      6.241211   -2.020752   -1.152446
C      5.470377   -1.000985   -0.585316
O      6.130513    0.182576   -0.348167
C      5.412147    1.215881    0.207763
C      6.126142    2.397233    0.432222
C      5.490677    3.499377    0.997601
C      4.143695    3.418545    1.339028
C      3.429903    2.236371    1.113854
C      4.051274    1.112726    0.540493
C      1.576865   -0.827050    1.820930
N      0.282978   -0.994842    2.175836
C     -0.663710   -0.601064    1.318107
N     -1.936510   -0.756840    1.676393
C     -2.915308   -0.353488    0.807110
C     -4.287283   -0.460355    1.330923
C     -4.733960   -1.612240    1.979854
C     -6.032245   -1.650230    2.482402
C     -6.849872   -0.537749    2.335138
C     -6.330592    0.574302    1.695378
N     -5.074839    0.642979    1.202161
N     -4.490985   -0.481545   -1.785865
C     -5.400764   -0.214869   -2.747947
H     -6.208409    1.134618   -4.214190
H     -4.525426    2.905240   -3.682250
H     -2.829514    2.468049   -1.913697
H      1.250400    0.564927   -1.225551
H      2.499179   -2.655642   -0.389181
H      3.861272   -4.429847   -1.377823
H      6.262052   -4.048464   -1.877727
H      7.291183   -1.847989   -1.372754
H      7.178216    2.453608    0.166134
H      6.044906    4.417736    1.173095
H      3.643533    4.275891    1.783406
H      2.381705    2.216339    1.398626
H      2.303887   -1.161555    2.556873
H     -4.075877   -2.468578    2.094115
H     -6.396963   -2.540229    2.986676
H     -7.865324   -0.534823    2.714314
H     -6.928773    1.470611    1.559615
H     -6.107876   -1.014633   -2.948131
