96

C     -9.906642   -4.903012    0.003808
C    -10.356592   -3.586673    0.003199
C     -9.437366   -2.532089    0.001708
C     -8.047303   -2.763547    0.000790
C     -7.077263   -1.647086   -0.000692
N     -7.560968   -0.404306   -0.000851
C     -6.648183    0.567523   -0.001949
C     -7.127105    1.966421   -0.002136
C     -8.501945    2.275226   -0.001158
C     -8.956146    3.598453   -0.001320
C     -8.043446    4.648447   -0.002450
C     -6.679120    4.376704   -0.003445
C     -6.228681    3.052343   -0.003295
N     -5.331289    0.363406   -0.002822
C     -4.945578   -0.912097   -0.002631
C     -3.492271   -1.189912   -0.003342
C     -2.995492   -2.520103   -0.005652
C     -1.623179   -2.813414   -0.006158
C     -0.723506   -1.764649   -0.004272
C     -1.188917   -0.433894   -0.002004
C     -2.550933   -0.141283   -0.001592
C      0.000014    0.557290    0.000090
C     -0.000366    1.402682    1.272037
C     -0.000104    0.816706    2.555708
C     -0.000648    1.603986    3.708618
C     -0.001501    2.990206    3.601796
C     -0.001785    3.584345    2.341965
C     -0.001206    2.796108    1.185644
O     -0.001568    3.492986    0.005729
C     -0.000586    2.800637   -1.176851
C     -0.000465    3.593318   -2.330131
C      0.000489    3.004029   -3.592234
C      0.001297    1.618227   -3.704379
C      0.001146    0.826513   -2.554503
C      0.000228    1.407549   -1.268595
C      1.189008   -0.433829   -0.001519
C      2.551013   -0.141152   -0.000713
C      3.492393   -1.189745   -0.002355
C      4.945698   -0.911903   -0.001521
N      5.779042   -1.952296   -0.001712
C      7.077380   -1.646912   -0.000827
C      8.047418   -2.763373   -0.000911
C      7.624405   -4.107606   -0.002603
C      8.540562   -5.164885   -0.002697
C      9.906778   -4.902815   -0.001074
C     10.356717   -3.586476    0.000618
C      9.437481   -2.531903    0.000689
N      7.561088   -0.404137    0.000109
C      6.648313    0.567702    0.000122
C      7.127283    1.966584    0.000965
C      6.228908    3.052544    0.000790
C      6.679404    4.376889    0.001540
C      8.043742    4.648572    0.002487
C      8.956394    3.598537    0.002696
C      8.502136    2.275330    0.001947
N      5.331412    0.363602   -0.000626
C      2.995665   -2.519961   -0.004805
C      1.623369   -2.813337   -0.005650
C      0.723655   -1.764612   -0.004004
N     -5.778924   -1.952485   -0.001637
C     -7.624279   -4.107779    0.001424
C     -8.540424   -5.165068    0.002911
H    -10.619619   -5.723256    0.004988
H    -11.422900   -3.375431    0.003897
H     -9.820498   -1.512748    0.001282
H     -9.240501    1.475123   -0.000240
H    -10.023399    3.804617   -0.000549
H     -8.394658    5.676886   -0.002551
H     -5.960413    5.192274   -0.004341
H     -5.154348    2.872452   -0.004104
H     -3.696121   -3.354927   -0.007083
H     -1.288921   -3.845695   -0.007908
H     -2.874294    0.897603    0.000268
H      0.000491   -0.266183    2.667816
H     -0.000434    1.132090    4.687912
H     -0.001956    3.607425    4.496014
H     -0.002471    4.668064    2.257131
H     -0.001108    4.676703   -2.241124
H      0.000595    3.624684   -4.484072
H      0.002039    1.150105   -4.685482
H      0.001763   -0.255939   -2.670765
H      2.874326    0.897748    0.001234
H      6.561724   -4.344901   -0.003890
H      8.182969   -6.191388   -0.004038
H     10.619769   -5.723047   -0.001134
H     11.423025   -3.375238    0.001873
H      9.820597   -1.512557    0.002027
H      5.154570    2.872692    0.000042
H      5.960735    5.192494    0.001370
H      8.394996    5.676998    0.003058
H     10.023657    3.804644    0.003440
H      9.240660    1.475197    0.002137
H      3.696329   -3.354756   -0.006112
H      1.289153   -3.845632   -0.007534
H     -6.561595   -4.345059    0.000785
H     -8.182819   -6.191569    0.003379
