84

C     -0.949074    1.793717    1.341585
C     -1.545494    0.766228    0.416407
C     -2.945503    0.626786    0.362634
C     -3.566172   -0.314703   -0.477856
N     -5.004652   -0.428630   -0.520475
C     -5.658543   -1.705535   -0.693918
C     -5.124944   -2.878438   -0.127598
C     -5.763050   -4.112508   -0.282175
C     -6.951283   -4.197329   -1.002092
C     -7.503694   -3.049467   -1.563523
C     -6.865094   -1.815444   -1.408442
C     -5.794507    0.786951   -0.482736
C     -5.572278    1.749569   -1.488853
C     -6.319903    2.920229   -1.533565
C     -7.298494    3.151027   -0.570946
C     -7.535672    2.226173    0.457821
C     -8.516810    2.493782    1.427501
C     -8.755535    1.604732    2.473910
C     -8.009877    0.438342    2.568858
C     -7.033015    0.157652    1.611031
C     -6.778815    1.027978    0.524175
C     -2.745844   -1.111191   -1.288246
C     -1.354817   -0.981368   -1.248486
C     -0.734762   -0.050578   -0.398971
C      0.734567    0.048999   -0.399144
C      1.354400    0.979759   -1.248848
C      2.745396    1.109845   -1.288681
C      3.565916    0.313727   -0.478114
N      5.004366    0.428140   -0.520619
C      5.657754    1.705271   -0.694304
C      5.123769    2.878035   -0.128056
C      5.761403    4.112322   -0.282823
C      6.949519    4.197507   -1.002887
C      7.502289    3.049795   -1.564275
C      6.864171    1.815547   -1.408991
C      5.794700   -0.787127   -0.482511
C      5.572557   -1.750322   -1.488104
C      6.320666   -2.920683   -1.532521
C      7.299707   -3.150602   -0.570150
C      7.536829   -2.225168    0.458106
C      8.518454   -2.491899    1.427537
C      8.757154   -1.602285    2.473469
C      8.010964   -0.436221    2.568204
C      7.033612   -0.156407    1.610619
C      6.779442   -1.027289    0.524197
C      2.945474   -0.627770    0.362532
C      1.545502   -0.767637    0.416210
C      0.949246   -1.794647    1.342028
H     -0.428306    2.566374    0.767331
H     -1.720557    2.291340    1.939012
H     -0.251385    1.323280    2.041465
H     -3.563911    1.253901    1.002647
H     -4.213269   -2.836076    0.463625
H     -5.333307   -5.003957    0.166951
H     -7.449438   -5.155796   -1.121326
H     -8.433520   -3.109442   -2.123017
H     -7.317447   -0.938214   -1.864347
H     -4.820983    1.568223   -2.254207
H     -6.144270    3.648947   -2.320152
H     -7.875232    4.072354   -0.624899
H     -9.104264    3.408266    1.377364
H     -9.517002    1.828071    3.216095
H     -8.181355   -0.256621    3.386488
H     -6.457506   -0.757543    1.727022
H     -3.183519   -1.827402   -1.979320
H     -0.748024   -1.613339   -1.894624
H      0.747455    1.611559   -1.895013
H      3.182900    1.826055   -1.979867
H      4.212171    2.835388    0.463265
H      5.331380    5.003655    0.166261
H      7.447303    5.156149   -1.122278
H      8.432017    3.110062   -2.123905
H      7.316789    0.938427   -1.864852
H      4.820944   -1.569663   -2.253311
H      6.145070   -3.649848   -2.318706
H      7.876837   -4.071693   -0.623889
H      9.106326   -3.406122    1.377573
H      9.519022   -1.824936    3.215453
H      8.182406    0.259174    3.385474
H      6.457700    0.758549    1.726467
H      3.564030   -1.254503    1.002775
H      1.721293   -2.295342    1.936155
H      0.255234   -1.322958    2.044731
H      0.424391   -2.565189    0.768648
