127

C     10.547755    4.782553    5.521783
C     10.217856    5.459419    4.413048
C      9.709306    4.838656    3.182238
C     10.175338    3.602314    2.718534
C      9.678364    3.051941    1.532038
C      8.701489    3.726504    0.787333
C      8.168098    3.115710   -0.489941
O      6.812246    3.491466   -0.753322
C      5.826289    2.634435   -0.329932
C      5.947846    1.817569    0.802780
C      4.899550    1.003506    1.213893
C      3.700351    0.972277    0.505284
C      3.568719    1.776460   -0.645063
C      4.598687    2.634250   -1.044958
C      4.116012    3.380424   -2.167354
C      4.691368    4.386961   -2.977361
C      3.972116    4.930959   -4.043572
C      2.691170    4.477836   -4.323637
C      2.098621    3.483241   -3.540462
C      2.811830    2.957640   -2.442257
N      2.495903    1.960442   -1.520886
C      1.267835    1.232001   -1.470951
C      1.290347   -0.150660   -1.262912
C      0.086688   -0.867670   -1.150423
N      0.181881   -2.263803   -0.891881
C      0.878084   -3.170916   -1.680755
C      1.540188   -3.010999   -2.915030
C      2.139787   -4.129599   -3.500073
C      2.073724   -5.374137   -2.887446
C      1.400820   -5.529041   -1.672238
C      0.787218   -4.416038   -1.055688
C      0.044905   -4.248178    0.158965
C     -0.341238   -5.136368    1.196738
O      0.032831   -6.452797    1.083176
C     -0.794793   -7.402166    1.755742
C     -0.425366   -8.787980    1.284102
C     -1.364392   -9.599816    0.637881
C     -1.024590  -10.894448    0.231069
C      0.262627  -11.400332    0.448904
C      0.649689  -12.767846    0.072987
C      0.137814  -13.457976   -0.954337
C      1.199117  -10.588065    1.100248
C      0.860886   -9.294237    1.508999
C     -1.031187   -4.620822    2.304393
C     -1.344479   -3.268246    2.387274
C     -0.983614   -2.386465    1.369728
C     -0.307052   -2.897257    0.246571
C     -1.159226   -0.222341   -1.266319
C     -2.378668   -0.987104   -1.336523
N     -3.356276   -1.609734   -1.400184
C     -1.162213    1.173470   -1.466534
N     -2.380109    1.911605   -1.526852
C     -2.750401    2.746858   -2.574666
C     -2.137872    3.005032   -3.817486
C     -2.757374    3.895795   -4.697580
C     -3.963185    4.499824   -4.365680
C     -4.583038    4.215854   -3.145192
C     -3.976541    3.321828   -2.234294
C     -4.352800    2.824585   -0.945304
C     -5.467597    3.048694   -0.099146
O     -6.485264    3.855970   -0.548423
C     -6.937376    4.834446    0.395972
C     -8.264481    4.451394    1.012383
C     -8.568069    4.837652    2.324616
C     -9.796902    4.496746    2.900753
C    -10.747192    3.765065    2.177953
C    -12.055008    3.404657    2.739999
C    -12.262901    3.061102    4.017199
C    -10.457375    3.409502    0.855321
C     -9.229517    3.747883    0.278936
C     -5.536548    2.390965    1.135815
C     -4.492910    1.579058    1.564839
C     -3.373013    1.368538    0.760057
C     -3.334657    1.966792   -0.514929
C      0.042394    1.896229   -1.583192
C      8.266366    4.982976    1.229814
C      8.765008    5.532175    2.415185
H     10.456314    3.703131    5.594736
H     10.905797    5.310993    6.401216
H     10.298622    6.544119    4.406885
H     10.936309    3.055737    3.271064
H     10.057847    2.086995    1.200041
H      8.770503    3.504700   -1.319510
H      8.289792    2.024953   -0.506202
H      6.846943    1.825011    1.410604
H      5.010435    0.395640    2.109088
H      2.886643    0.352390    0.869460
H      5.700050    4.737693   -2.775394
H      4.424354    5.704829   -4.659512
H      2.144085    4.895045   -5.165918
H      1.109753    3.124800   -3.802778
H      2.241142   -0.678868   -1.188779
H      1.583250   -2.049997   -3.419355
H      2.655222   -4.025642   -4.452108
H      2.539958   -6.237084   -3.356782
H      1.347183   -6.508742   -1.204544
H     -1.854645   -7.204504    1.547617
H     -0.626542   -7.356736    2.840445
H     -2.372143   -9.236530    0.448893
H     -1.785883  -11.504609   -0.248451
H      1.424448  -13.229232    0.682101
H     -0.615973  -13.047365   -1.617348
H      0.484577  -14.465879   -1.165582
H      2.206923  -10.950507    1.289418
H      1.609663   -8.678363    2.003313
H     -1.315419   -5.256315    3.136777
H     -1.869592   -2.891969    3.262540
H     -1.218238   -1.332441    1.466105
H     -1.215074    2.514951   -4.108474
H     -2.295127    4.108890   -5.658872
H     -4.437771    5.186358   -5.062718
H     -5.537041    4.677596   -2.904746
H     -7.081078    5.770440   -0.157861
H     -6.181642    5.039208    1.165745
H     -7.851556    5.406777    2.912273
H    -10.005757    4.818543    3.918144
H    -12.891532    3.402054    2.044653
H    -11.461683    3.014561    4.747289
H    -13.258788    2.793096    4.357386
H    -11.178288    2.851416    0.262103
H     -9.026862    3.448053   -0.747957
H     -6.410152    2.497122    1.773058
H     -4.557582    1.090782    2.533746
H     -2.567887    0.738222    1.121294
H      0.012653    2.982209   -1.679256
H      7.524207    5.538562    0.658736
H      8.395683    6.503689    2.737650
