43

C     -2.463758    3.666458   -0.000147
C     -1.075991    3.741603   -0.000181
C     -0.317360    2.571074   -0.000115
C     -0.935168    1.301720   -0.000014
C     -2.337537    1.238522    0.000033
C     -3.090554    2.420725   -0.000047
N     -2.983713   -0.000109    0.000115
C     -2.337436   -1.238684    0.000123
C     -3.090355   -2.420947    0.000134
C     -2.463459   -3.666632    0.000123
C     -1.075686   -3.741671    0.000104
C     -0.317154   -2.571078    0.000109
C     -0.935065   -1.301775    0.000103
C     -0.103918    0.000006    0.000034
C      0.890495    0.000101    1.190739
C      0.599723    0.000167    2.549685
C      1.665020    0.000234    3.450591
C      2.992585    0.000240    2.991384
C      3.279965    0.000176    1.622144
C      2.224991    0.000107    0.724001
C      2.224961    0.000034   -0.724033
C      3.279895    0.000006   -1.622223
C      2.992454   -0.000062   -2.991451
C      1.664874   -0.000102   -3.450603
C      0.599613   -0.000079   -2.549653
C      0.890445   -0.000014   -1.190717
H     -3.058676    4.575577   -0.000209
H     -0.580385    4.708790   -0.000280
H      0.767787    2.654822   -0.000152
H     -4.176205    2.378903   -0.000035
H     -3.993560   -0.000150    0.000173
H     -4.176008   -2.379198    0.000141
H     -3.058301   -4.575801    0.000128
H     -0.579998   -4.708814    0.000076
H      0.768000   -2.654719    0.000085
H     -0.427999    0.000169    2.899957
H      1.465659    0.000288    4.519631
H      3.807452    0.000282    3.711679
H      4.309890    0.000177    1.281918
H      4.309837    0.000023   -1.282046
H      3.807286   -0.000098   -3.711783
H      1.465477   -0.000159   -4.519636
H     -0.428125   -0.000114   -2.899886
