68

O      3.952466   -0.244879   -2.826514
P      3.739100   -0.125935   -1.325883
C      4.503318   -1.510542   -0.457607
C      4.475859   -2.779194   -1.058453
C      5.039322   -3.883502   -0.419082
C      5.638941   -3.732918    0.829046
C      5.677703   -2.479234    1.436303
C      5.113928   -1.372904    0.797470
C      4.462898    1.400264   -0.692509
C      5.666165    1.857512   -1.253072
C      6.272111    3.024339   -0.787060
C      5.681509    3.750011    0.244747
C      4.485042    3.311196    0.808526
C      3.877495    2.143167    0.343183
C      1.981476   -0.119813   -0.925040
C      1.467321   -0.713045    0.231863
C      0.096387   -0.665973    0.507146
C     -0.809230   -0.027786   -0.365375
Si    -2.637217    0.015666    0.028571
C     -3.421275   -1.633660   -0.363306
C     -4.823319   -1.750568   -0.478983
C     -5.429993   -2.975217   -0.771741
C     -4.651297   -4.112146   -0.957602
C     -3.266865   -4.024510   -0.852861
C     -2.657786   -2.799884   -0.559993
C     -3.490250    1.321599   -0.998138
C     -3.782527    1.084725   -2.358788
C     -4.419626    2.048574   -3.145311
C     -4.782587    3.271302   -2.591632
C     -4.510991    3.529365   -1.251913
C     -3.873321    2.566077   -0.463198
C     -2.813909    0.400509    1.849243
C     -2.033531    1.413714    2.447156
C     -2.149566    1.714609    3.807096
C     -3.045874    1.009565    4.602867
C     -3.824582    0.003497    4.039923
C     -3.710215   -0.298981    2.679158
C     -0.279002    0.563490   -1.524980
C      1.091871    0.516175   -1.799383
H      4.014863   -2.901172   -2.037883
H      5.013801   -4.859178   -0.897750
H      6.081228   -4.592367    1.326376
H      6.151599   -2.362240    2.407886
H      5.160005   -0.405622    1.291225
H      6.128514    1.298085   -2.065466
H      7.201993    3.368178   -1.232974
H      6.151373    4.661307    0.605798
H      4.022102    3.882314    1.609556
H      2.943047    1.824402    0.797738
H      2.122082   -1.219764    0.936527
H     -0.256131   -1.143400    1.422914
H     -5.468606   -0.881725   -0.343449
H     -6.511897   -3.037177   -0.856468
H     -5.121621   -5.064318   -1.186951
H     -2.654352   -4.910237   -1.002082
H     -1.571150   -2.782009   -0.495920
H     -3.516772    0.137540   -2.829975
H     -4.632357    1.840182   -4.190752
H     -5.278503    4.020950   -3.201986
H     -4.797138    4.482539   -0.814358
H     -3.689958    2.813296    0.581014
H     -1.319137    1.988294    1.856680
H     -1.538092    2.500565    4.242691
H     -3.137207    1.242119    5.660260
H     -4.524497   -0.551930    4.659309
H     -4.336877   -1.098549    2.287089
H     -0.917632    1.076244   -2.242841
H      1.471372    0.979006   -2.710080
