92

C      5.844685    0.831084   -0.266113
C      5.063607    1.275156    0.970827
C      4.790612    0.124626    1.939146
C      3.849626    2.149567    0.638944
C      3.963115    3.493142    1.088162
C      3.002965    4.455394    0.800797
C      1.901390    4.101504    0.047711
C      1.745848    2.781427   -0.383045
C      2.689253    1.768465   -0.095007
P      2.383244    0.083816   -0.739311
C      1.791166   -0.954472    0.615726
C      1.215414   -0.325346    1.745620
C      0.804780   -1.040086    2.870545
C      0.957503   -2.414592    2.900374
C      1.528253   -3.067008    1.811703
C      1.979678   -2.366402    0.664546
C      2.694108   -3.243017   -0.373769
C      1.960104   -3.385467   -1.703131
C      4.175262   -2.910051   -0.577024
C      1.119011    0.226473   -2.056881
C      1.761257    0.414383   -3.318498
C      1.059974    0.556834   -4.511907
C     -0.317499    0.516937   -4.487057
C     -0.979667    0.339489   -3.271250
C     -0.305016    0.189901   -2.030752
P     -1.326970    0.018493   -0.504996
C     -1.957845   -1.717439   -0.459167
C     -1.630989   -2.606621   -1.503814
C     -2.115210   -3.915653   -1.545397
C     -2.943482   -4.376163   -0.537337
C     -3.276970   -3.530399    0.517479
C     -2.791239   -2.204138    0.592244
C     -3.209668   -1.367750    1.806790
C     -2.871903   -2.055777    3.135464
C     -4.704575   -1.034046    1.779365
C     -2.888222    0.964937   -0.844281
C     -3.920624    0.365770   -1.608936
C     -5.129662    1.009925   -1.869117
C     -5.350677    2.274248   -1.358353
C     -4.364515    2.886567   -0.586665
C     -3.126005    2.258965   -0.313633
C     -2.132874    3.002517    0.579299
C     -2.657824    3.121012    2.018240
C     -1.786226    4.391320    0.018454
H      6.108320    1.696495   -0.891207
H      5.291883    0.125332   -0.890145
H      6.777761    0.341911    0.025753
H      5.772281    1.911949    1.518126
H      4.325868   -0.726504    1.449045
H      5.734823   -0.244453    2.361793
H      4.155252    0.443373    2.773920
H      4.831409    3.811237    1.661064
H      3.130252    5.478641    1.145593
H      1.158338    4.848500   -0.213279
H      0.856964    2.569848   -0.968830
H      1.073700    0.753639    1.770685
H      0.361332   -0.519137    3.714608
H      0.633054   -2.984819    3.767212
H      1.638110   -4.149410    1.874608
H      2.709203   -4.265440    0.032341
H      1.941614   -2.462985   -2.276882
H      0.932724   -3.719521   -1.543157
H      2.449176   -4.140896   -2.326751
H      4.672324   -3.719895   -1.124653
H      4.325757   -1.999578   -1.159235
H      4.692809   -2.798532    0.381229
H      2.850350    0.454079   -3.382432
H      1.591733    0.697541   -5.448875
H     -0.886624    0.626164   -5.406045
H     -2.062044    0.315571   -3.329706
H     -0.983822   -2.301452   -2.319682
H     -1.838296   -4.567969   -2.369293
H     -3.326988   -5.392317   -0.564412
H     -3.931076   -3.919434    1.295602
H     -2.663355   -0.422828    1.820088
H     -3.023319   -1.365200    3.971961
H     -3.495700   -2.933730    3.324875
H     -1.832669   -2.386194    3.155119
H     -4.959117   -0.352868    2.600727
H     -4.995234   -0.549014    0.841624
H     -5.323235   -1.933159    1.891079
H     -3.801537   -0.635802   -2.016313
H     -5.896406    0.512380   -2.458438
H     -6.289747    2.782402   -1.547460
H     -4.578709    3.870400   -0.182667
H     -1.188278    2.454871    0.637144
H     -3.565478    3.734763    2.076443
H     -2.891568    2.132512    2.436635
H     -1.905663    3.588299    2.662060
H     -2.654515    5.058265   -0.037934
H     -1.051601    4.887766    0.663036
H     -1.363250    4.307673   -0.990970
