97

C      7.994341    6.901614   -1.327108
C      6.942620    7.044715   -0.238607
C      5.867104    5.963906   -0.354115
C      4.812871    6.111167    0.745492
C      3.652568    5.119617    0.612032
C      4.080436    3.660816    0.792216
C      2.898865    2.691463    0.885202
C      2.067547    2.623119   -0.397568
N      1.046706    1.599563   -0.303371
C     -0.223094    1.838109    0.197145
O     -0.681744    2.885126    0.621055
C     -0.890589    0.562517    0.125262
C     -2.129617    0.056260    0.413963
C     -3.324827    0.696841    0.970569
C     -3.225529    1.512900    2.105546
C     -4.358364    2.121835    2.650312
C     -5.609223    1.925535    2.067164
C     -5.726446    1.122912    0.928212
N     -7.001846    0.925591    0.319125
C     -7.257235    0.976126   -1.053657
C     -6.427833    1.290050   -2.151618
C     -6.974801    1.275157   -3.438360
C     -8.315945    0.976752   -3.637577
C     -9.145485    0.703722   -2.547650
C     -8.617425    0.716148   -1.237218
C     -9.201107    0.518978    0.048261
C    -10.516802    0.230541    0.475056
C    -10.786621    0.051717    1.833580
C     -9.763833    0.141840    2.767435
C     -8.454273    0.428649    2.370598
C     -8.188298    0.646858    1.002032
C     -4.586923    0.512391    0.383242
S     -2.139853   -1.637532    0.040886
C     -0.501711   -1.644516   -0.524366
C      0.106866   -2.890797   -0.994479
C     -0.518110   -3.671421   -1.978154
C      0.051800   -4.872289   -2.405221
C      1.253290   -5.312215   -1.851993
C      1.894178   -4.542826   -0.874597
N      3.118921   -4.997164   -0.298772
C      4.247052   -4.207044   -0.067729
C      4.528130   -2.860694   -0.380013
C      5.775434   -2.330909   -0.037115
C      6.735882   -3.118551    0.582283
C      6.472394   -4.462762    0.856333
C      5.219488   -5.021431    0.516970
C      4.676526   -6.334299    0.631245
C      5.191740   -7.549407    1.135162
C      4.391939   -8.694401    1.151227
C      3.085210   -8.640894    0.685904
C      2.553277   -7.451142    0.179485
C      3.373453   -6.303567    0.128235
C      1.325044   -3.331011   -0.454447
C      0.012031   -0.382318   -0.403114
C      1.258795    0.283464   -0.679702
O      2.271290   -0.215457   -1.139247
H      8.752854    7.683991   -1.225834
H      7.544753    6.990616   -2.321179
H      8.496418    5.930745   -1.262470
H      6.483134    8.037510   -0.311096
H      7.429136    6.982442    0.741775
H      6.342359    4.978463   -0.289689
H      5.385280    6.029138   -1.337051
H      4.399045    7.126954    0.712820
H      5.284307    5.994780    1.728865
H      3.176309    5.255350   -0.365723
H      2.900027    5.370074    1.369896
H      4.729989    3.352371   -0.034957
H      4.671062    3.569389    1.712134
H      2.256603    2.969028    1.730251
H      3.291517    1.692506    1.114732
H      1.575296    3.583157   -0.583370
H      2.715733    2.392826   -1.250419
H     -2.262062    1.685021    2.581253
H     -4.260965    2.760335    3.524899
H     -6.468529    2.443934    2.486382
H     -5.384584    1.559886   -2.018598
H     -6.342373    1.510511   -4.291511
H     -8.728577    0.971173   -4.643192
H    -10.198862    0.492599   -2.709543
H    -11.318614    0.137957   -0.251889
H    -11.799400   -0.173753    2.156965
H     -9.980733   -0.021673    3.820649
H     -7.666018    0.459703    3.116365
H     -4.682120   -0.137725   -0.483902
H     -1.455558   -3.349782   -2.427188
H     -0.440077   -5.461191   -3.175872
H      1.695510   -6.233281   -2.225239
H      3.808295   -2.234224   -0.897934
H      5.993996   -1.291562   -0.270864
H      7.703019   -2.695100    0.840329
H      7.236445   -5.079854    1.320584
H      6.206600   -7.593118    1.520422
H      4.792114   -9.625490    1.544117
H      2.462744   -9.531835    0.723586
H      1.518120   -7.425970   -0.146861
H      1.799541   -2.749255    0.332925
