112

C     -7.341554    3.098070   -3.482050
C     -7.444684    1.708915   -3.479005
C     -7.943543    1.046452   -2.353905
C     -8.343930    1.761134   -1.210507
N     -8.853791    1.077758   -0.043731
C     -9.970672    1.635968    0.681967
C    -11.071627    2.186142    0.001723
C    -12.154024    2.723732    0.703036
C    -12.152453    2.722557    2.095931
C    -11.070070    2.185513    2.789107
C     -9.988523    1.645921    2.088008
C     -8.252640   -0.160488    0.395644
C     -9.042153   -1.208030    0.902233
C     -8.464704   -2.408070    1.321313
C     -7.085170   -2.585234    1.236025
C     -6.265798   -1.564280    0.732966
C     -4.800350   -1.759687    0.621996
C     -3.953981   -1.405834    1.717335
C     -4.460726   -0.855490    2.924980
C     -3.638209   -0.509416    3.996296
C     -2.274396   -0.699465    3.892528
C     -1.745477   -1.235723    2.718936
C     -2.556380   -1.604515    1.611998
C     -2.010888   -2.160361    0.412756
C     -0.540520   -2.381555    0.308363
C     -0.020987   -3.600893    0.775484
C      1.343366   -3.866582    0.715075
C      2.226517   -2.921859    0.183318
C      3.595992   -3.187509    0.131396
C      4.484158   -2.251534   -0.400621
C      4.040614   -1.015330   -0.912650
C      4.921896   -0.045511   -1.470954
C      6.377825   -0.249174   -1.573353
C      6.922540   -1.093370   -2.550763
C      8.302409   -1.270107   -2.648719
C      9.157403   -0.596222   -1.775073
C      8.647736    0.266459   -0.791198
N      9.529002    0.982235    0.100713
C      9.256498    2.364250    0.418677
C      8.812698    3.259351   -0.571667
C      8.538322    4.594451   -0.263944
C      8.703899    5.058014    1.038694
C      9.143863    4.188825    2.034465
C      9.420190    2.854222    1.726447
C     10.674885    0.316933    0.673967
C     11.904524    0.984518    0.816582
C     13.012612    0.340313    1.374380
C     12.910882   -0.982509    1.798319
C     11.702929   -1.662832    1.664456
C     10.594852   -1.018974    1.106958
C      7.252250    0.423455   -0.703361
C      4.395874    1.167405   -1.945603
C      3.031531    1.433685   -1.881775
C      2.152179    0.493170   -1.340106
C      0.784361    0.765037   -1.276051
C     -0.100774   -0.166880   -0.735451
C      0.343408   -1.409095   -0.241689
C      1.735327   -1.688187   -0.303997
C      2.646889   -0.739083   -0.852372
C     -2.857252   -2.511647   -0.684158
C     -2.351068   -3.063149   -1.891550
C     -3.172997   -3.402589   -2.965258
C     -4.535489   -3.200163   -2.866300
C     -5.063071   -2.661332   -1.693952
C     -4.253754   -2.306769   -0.580788
C     -6.860908   -0.357494    0.324196
C     -8.232625    3.163255   -1.235686
C     -7.735797    3.825729   -2.361573
H     -6.953227    3.613250   -4.357006
H     -7.140194    1.137602   -4.352450
H     -8.032034   -0.036752   -2.380492
H    -11.099140    2.182187   -1.085244
H    -12.998118    3.140493    0.159340
H    -12.994307    3.141860    2.640637
H    -11.063170    2.189048    3.875758
H     -9.145162    1.247804    2.647174
H    -10.123689   -1.102392    0.955927
H     -9.093309   -3.207212    1.705650
H     -6.645394   -3.527419    1.557740
H     -5.528569   -0.684248    3.048227
H     -4.069103   -0.092418    4.902096
H     -1.616386   -0.434482    4.715682
H     -0.664605   -1.362811    2.680599
H     -0.690126   -4.351940    1.192916
H      1.708931   -4.821117    1.087029
H      3.992954   -4.127911    0.507747
H      5.542212   -2.506246   -0.406284
H      6.266731   -1.617324   -3.243368
H      8.713745   -1.924818   -3.412166
H     10.231606   -0.729212   -1.881664
H      8.691823    2.921845   -1.598124
H      8.198745    5.270422   -1.044791
H      8.487100    6.095240    1.278971
H      9.270130    4.547576    3.052781
H      9.744389    2.188686    2.522863
H     12.011401    2.012194    0.477608
H     13.954774    0.873339    1.473492
H     13.771476   -1.483620    2.233891
H     11.620274   -2.694175    1.996002
H      9.656171   -1.563217    1.029371
H      6.834100    1.069439    0.066991
H      5.059356    1.916638   -2.374265
H      2.664075    2.385170   -2.260379
H      0.387907    1.707752   -1.646489
H     -1.156862    0.095431   -0.707948
H     -1.283151   -3.237300   -2.014486
H     -2.742561   -3.822725   -3.869190
H     -5.192155   -3.457540   -3.692745
H     -6.142083   -2.519163   -1.660135
H     -6.221390    0.442029   -0.046248
H     -8.516582    3.750102   -0.364735
H     -7.653031    4.909411   -2.358742
