94

C      9.508089    2.317313   -0.993553
C      9.768531    3.028993    0.164833
N      8.958653    3.024366    1.243972
C      7.837826    2.268693    1.156456
C      7.476358    1.506644    0.044086
C      6.241965    0.705910    0.027767
C      5.002401    1.374757    0.055975
C      3.789899    0.697832    0.028958
N      2.636935    1.383055    0.056549
C      1.461191    0.704485    0.028857
C      0.242120    1.403641    0.056769
C      0.238664    2.817519    0.114010
C     -0.941063    3.557597    0.142917
C     -2.164240    2.900335    0.114759
N     -3.385932    3.635714    0.142808
C     -3.961960    4.166265   -1.057862
C     -3.375519    4.001104   -2.324981
C     -3.973457    4.534503   -3.471836
C     -5.169153    5.240533   -3.373879
C     -5.768987    5.412102   -2.129050
C     -5.170377    4.878279   -0.983285
O     -5.843505    5.095354    0.197124
C     -5.293364    4.584466    1.350326
C     -6.012126    4.829542    2.524792
C     -5.535381    4.358843    3.745444
C     -4.340421    3.646244    3.790702
C     -3.622302    3.401705    2.615219
C     -4.088107    3.863600    1.371642
C     -2.180821    1.498270    0.058112
C     -0.996411    0.714248    0.028388
C     -0.996415   -0.714147   -0.028312
C     -2.180825   -1.498161   -0.058289
C     -2.164224   -2.900225   -0.114896
N     -3.385898   -3.635604   -0.143205
C     -4.086802   -3.865133   -1.372444
C     -3.619802   -3.404748   -2.616133
C     -4.336720   -3.650842   -3.792026
C     -5.531665   -4.363484   -3.747053
C     -6.009611   -4.832645   -2.526275
C     -5.292051   -4.586013   -1.351401
O     -5.843371   -5.095364   -0.198081
C     -5.171456   -4.876697    0.982729
C     -5.771186   -5.409039    2.128598
C     -5.172567   -5.235856    3.373790
C     -3.976947   -4.529727    3.472006
C     -3.377886   -3.997813    2.325045
C     -3.963124   -4.164566    1.057581
C     -0.941054   -3.557505   -0.142765
C      0.238665   -2.817433   -0.113634
C      0.242115   -1.403553   -0.056427
C      1.461185   -0.704409   -0.028307
N      2.636916   -1.383001   -0.055819
C      3.789885   -0.697806   -0.028115
C      5.002355   -1.374779   -0.055068
C      6.241930   -0.705969   -0.026826
C      7.476275   -1.506752   -0.043146
C      8.345618   -1.551214    1.053093
C      9.507635   -2.318006    0.994718
C      9.768422   -3.029089   -0.163956
N      8.958889   -3.023887   -1.243349
C      7.838055   -2.268238   -1.155793
C      8.346058    1.550538   -1.051902
H     10.193365    2.356148   -1.832956
H     10.661673    3.640356    0.257507
H      7.215156    2.289318    2.047904
H      4.975212    2.463651    0.088605
H      1.181699    3.364553    0.137524
H     -0.902928    4.642875    0.188841
H     -2.444616    3.453313   -2.442627
H     -3.501898    4.395263   -4.441559
H     -5.634053    5.654539   -4.264695
H     -6.703856    5.959651   -2.046608
H     -6.942842    5.388687    2.483534
H     -6.093259    4.549008    4.658519
H     -3.961918    3.278855    4.741428
H     -2.691729    2.846159    2.692037
H     -3.162429    1.031487    0.035585
H     -3.162440   -1.031377   -0.036029
H     -2.689236   -2.849150   -2.692689
H     -3.957312   -3.284615   -4.742839
H     -6.088619   -4.554849   -4.660447
H     -6.940337   -5.391784   -2.485221
H     -6.705967   -5.956708    2.045949
H     -5.638330   -5.648718    4.264690
H     -3.506321   -4.389276    4.442005
H     -2.447039   -3.449961    2.442864
H     -0.902918   -4.642787   -0.188627
H      1.181699   -3.364478   -0.136942
H      4.975135   -2.463672   -0.087714
H      8.125808   -0.988360    1.957221
H     10.192637   -2.357309    1.834321
H     10.661575   -3.640430   -0.256669
H      7.215663   -2.288378   -2.047443
H      8.126518    0.987245   -1.955826
