88

C      2.786030    3.097093   -2.198561
C      2.084754    4.192338   -2.668400
N      0.769250    4.165523   -2.967732
C      0.132681    2.987601   -2.776032
C      0.728567    1.838054   -2.258510
C     -0.092774    0.586359   -2.063327
C      0.267025   -0.339048   -0.852376
C     -0.619727   -1.559825   -0.799308
N     -0.214770   -2.811210   -0.651752
C     -1.344110   -3.580574   -0.814050
C     -1.490989   -4.974876   -0.793005
C     -2.764158   -5.519167   -1.007172
C     -3.866999   -4.692862   -1.239489
C     -3.740203   -3.299188   -1.256519
C     -2.461042   -2.784616   -1.038244
N     -1.985010   -1.503260   -0.952277
N      0.554494    0.259778    0.480376
C     -0.558069    0.892212    1.242783
C     -1.230389    0.213851    2.488225
C     -2.110728   -1.001471    2.382114
C     -3.478670   -0.892497    2.115100
C     -4.285634   -2.026856    2.130740
C     -3.700252   -3.244113    2.430531
N     -2.392070   -3.392899    2.719239
C     -1.632288   -2.274881    2.680807
C     -1.594545    1.624284    0.418519
N     -2.706112    1.139522   -0.108323
C     -3.350847    2.214546   -0.672796
C     -4.580810    2.270708   -1.342389
C     -5.010172    3.504001   -1.849783
C     -4.228206    4.652128   -1.697852
C     -2.997646    4.612740   -1.032238
C     -2.598818    3.373029   -0.529862
N     -1.476088    2.970084    0.144835
C      1.524594   -0.515332    1.324275
C      2.194952    0.254863    2.527957
C      2.505457    1.728480    2.395248
C      2.058295    2.639287    3.362613
C      2.362423    3.992441    3.244403
C      3.123518    4.398801    2.163736
N      3.590531    3.555741    1.221681
C      3.282937    2.242518    1.364362
C      2.641884   -1.225379    0.565359
N      3.854450   -0.777919    0.299522
C      4.490184   -1.791021   -0.375312
C      5.791074   -1.844148   -0.895590
C      6.198143   -3.004198   -1.567259
C      5.327084   -4.086435   -1.718772
C      4.025321   -4.050554   -1.204659
C      3.650558   -2.885216   -0.533663
N      2.484672   -2.508595    0.079387
C      2.097838    1.902694   -2.001971
H      3.844076    3.171616   -1.971627
H      2.580182    5.145258   -2.825764
H     -0.918761    2.999255   -3.053876
H     -1.151961    0.850778   -2.055570
H      0.027251   -0.004230   -2.984589
H      1.216627   -0.730456   -1.228082
H     -0.633986   -5.612796   -0.612022
H     -2.892340   -6.598833   -0.990879
H     -4.844528   -5.141245   -1.403984
H     -4.595765   -2.654553   -1.422657
H     -2.537741   -0.651770   -0.972710
H     -0.040964    1.730290    1.727108
H     -1.832802    0.987015    2.991628
H     -0.467756   -0.013621    3.237603
H     -3.928517    0.075234    1.907898
H     -5.345897   -1.961303    1.917086
H     -4.284933   -4.158763    2.447173
H     -0.592566   -2.446817    2.939410
H     -5.181743    1.376511   -1.464611
H     -5.961661    3.566592   -2.372943
H     -4.580387    5.597162   -2.108038
H     -2.384767    5.502058   -0.924898
H     -0.677132    3.549731    0.368947
H      0.963844   -1.338019    1.782553
H      3.126952   -0.245376    2.829089
H      1.546143    0.133503    3.402227
H      1.477190    2.300701    4.216435
H      2.024893    4.710399    3.983115
H      3.392211    5.441907    2.026544
H      3.708692    1.602927    0.598010
H      6.459320   -0.998784   -0.778607
H      7.203787   -3.059609   -1.977196
H      5.665842   -4.975245   -2.247286
H      3.345638   -4.887225   -1.323941
H      1.608567   -3.023717    0.066800
H      2.647401    1.038887   -1.636938
