56

N     -4.538310    7.332208   -0.215226
C     -4.007403    6.300595   -0.185719
C     -3.344578    5.029826   -0.148743
C     -2.691905    4.544502   -1.285166
C     -2.044166    3.305520   -1.247526
C     -2.040589    2.531637   -0.076147
C     -1.356101    1.229064   -0.041511
C      0.048964    1.207611   -0.002337
C      0.756597    0.000898    0.028478
N      2.182013    0.002329    0.064491
C      2.894411    0.034758    1.308149
C      2.250377    0.065526    2.557611
C      2.985820    0.096453    3.747380
C      4.377367    0.096826    3.710315
C      5.034979    0.065944    2.483461
C      4.298957    0.035023    1.294812
O      5.039671    0.004885    0.135699
C      4.357701   -0.026431   -1.058843
C      5.152007   -0.055898   -2.209392
C      4.556389   -0.087768   -3.467513
C      3.168421   -0.089832   -3.573933
C      2.374622   -0.060378   -2.422254
C      2.955621   -0.028664   -1.142155
C      0.050771   -1.207260    0.022697
C     -1.354259   -1.231643   -0.015998
C     -2.036789   -2.535690   -0.023490
C     -2.038900   -3.333970   -1.178387
C     -2.684769   -4.574446   -1.190183
C     -3.337028   -5.036815   -0.043989
C     -3.997953   -6.309068   -0.054483
N     -4.527315   -7.341862   -0.062546
C     -3.337796   -4.253746    1.113413
C     -2.690549   -3.013860    1.123212
C     -2.055497   -0.002059   -0.052301
C     -3.494727   -0.003857   -0.122578
N     -4.654836   -0.005179   -0.166918
C     -2.694805    3.032750    1.060451
C     -3.343897    4.271196    1.024828
H     -2.683851    5.123758   -2.206918
H     -1.544339    2.944735   -2.145186
H      0.608239    2.143139    0.007565
H      1.166758    0.065650    2.629088
H      2.468577    0.120073    4.703543
H      4.949067    0.120782    4.634483
H      6.121126    0.065628    2.448636
H      6.235086   -0.053662   -2.120441
H      5.173607   -0.110577   -4.361976
H      2.699699   -0.114185   -4.554780
H      1.295947   -0.062341   -2.547579
H      0.611440   -2.141529    0.052591
H     -1.539404   -2.991341   -2.083306
H     -2.675587   -5.172908   -2.099569
H     -3.842106   -4.599818    2.014086
H     -2.702522   -2.422275    2.037255
H     -2.705727    2.460417    1.986678
H     -3.848524    4.635328    1.918172
