55

C      0.000129   -0.628432    1.114800
C      0.000049   -1.312388   -0.234920
C      1.226981   -1.654359   -0.861957
C      2.534445   -1.385165   -0.245323
C      3.025706   -2.199334    0.781122
C      4.271688   -1.939744    1.358678
C      5.055468   -0.862946    0.922065
C      4.577523   -0.048100   -0.102154
C      3.326383   -0.312715   -0.679519
O      5.222739    1.037931   -0.638008
C      6.452780    1.437357   -0.180250
C      6.966525    2.568811   -0.829514
C      8.208499    3.092688   -0.472871
C      8.946410    2.486489    0.537893
C      8.438868    1.359356    1.187178
C      7.189640    0.826543    0.833744
S      6.620397   -0.604183    1.706291
C      1.202341   -2.283557   -2.119674
C     -0.000070   -2.591305   -2.747140
C     -1.202419   -2.283532   -2.119568
C     -1.226947   -1.654327   -0.861849
C     -2.534363   -1.385087   -0.245119
C     -3.025312   -2.198852    0.781794
C     -4.271251   -1.939216    1.359428
C     -5.055305   -0.862779    0.922422
C     -4.577682   -0.048347   -0.102272
C     -3.326582   -0.313003   -0.679705
O     -5.223217    1.037261   -0.638593
C     -6.453083    1.436918   -0.180566
C     -6.967017    2.568133   -0.830105
C     -8.208839    3.092206   -0.473226
C     -8.946409    2.486448    0.538053
C     -8.438687    1.359545    1.187598
C     -7.189616    0.826529    0.833920
S     -6.620161   -0.603932    1.706765
H      0.869717    0.023984    1.240103
H     -0.869443    0.023982    1.240203
H      0.000180   -1.378231    1.912044
H      2.438905   -3.044198    1.136507
H      4.626041   -2.590454    2.155685
H      2.964402    0.334319   -1.476851
H      6.390649    3.044223   -1.620160
H      8.596702    3.970438   -0.982957
H      9.915658    2.887762    0.822893
H      9.029312    0.897282    1.975896
H      2.136414   -2.546369   -2.613924
H     -0.000118   -3.080666   -3.717306
H     -2.136539   -2.546332   -2.613738
H     -2.438302   -3.043439    1.137489
H     -4.625353   -2.589610    2.156800
H     -2.964857    0.333716   -1.477413
H     -6.391398    3.043209   -1.621138
H     -8.597182    3.969777   -0.983516
H     -9.915530    2.887885    0.823250
H     -9.028869    0.897813    1.976714
