59

C      3.796132   -3.507177    1.947883
C      2.729612   -2.667026    2.234445
C      2.699316   -1.355920    1.749732
C      3.761279   -0.898553    0.939377
C      4.867748   -1.720300    0.692421
C      4.871754   -3.043156    1.188241
C      5.820010   -0.956867   -0.035404
C      7.105740   -1.214490   -0.548084
C      7.760246   -0.191069   -1.226608
C      7.118961    1.027022   -1.365866
N      5.891666    1.326395   -0.894175
C      5.284045    0.312754   -0.228885
N      3.998330    0.334452    0.312602
C      3.078115    1.430210    0.224692
C      3.538442    2.745422    0.228132
C      2.645622    3.818877    0.141088
C      1.266343    3.559679    0.039801
S      0.007536    4.718072   -0.078260
C     -1.216097    3.520028   -0.166904
C     -2.601077    3.735881   -0.293496
C     -3.462046    2.634576   -0.348889
C     -2.966076    1.334398   -0.269414
N     -3.854303    0.210253   -0.327287
C     -5.158681    0.156227    0.186758
C     -5.891117    1.051625    0.996063
C     -7.204804    0.729125    1.350000
C     -7.781504   -0.462809    0.934956
C     -7.043998   -1.373465    0.175988
C     -5.712263   -1.074203   -0.188033
C     -4.710044   -1.807480   -0.878861
C     -4.652925   -3.084108   -1.469846
C     -3.461492   -3.477391   -2.071847
C     -2.392852   -2.598610   -2.062255
N     -2.394213   -1.368274   -1.510483
C     -3.565197   -1.017870   -0.923148
C     -1.580035    1.136524   -0.161094
C     -0.679328    2.235701   -0.104395
C      0.767248    2.258823    0.018756
C      1.699962    1.188170    0.104354
H      3.806048   -4.523404    2.333648
H      1.909127   -3.027634    2.851124
H      1.869344   -0.711242    2.023073
H      5.718053   -3.696843    0.995732
H      7.574581   -2.184646   -0.420148
H      8.750814   -0.343408   -1.640500
H      7.607216    1.841678   -1.896136
H      4.597134    2.975580    0.326823
H      3.018321    4.839566    0.152876
H     -2.998005    4.745103   -0.364500
H     -4.519057    2.830786   -0.510625
H     -5.454784    1.973414    1.368522
H     -7.777330    1.418932    1.966331
H     -8.803554   -0.700063    1.219411
H     -7.491931   -2.319089   -0.117033
H     -5.513901   -3.744454   -1.458876
H     -3.370912   -4.450541   -2.541539
H     -1.451935   -2.880172   -2.530100
H     -1.165080    0.135076   -0.086573
H      1.315798    0.175916    0.016435
