67

C     -3.738644   -4.162913   -0.776954
C     -4.886345   -3.378739   -0.763303
C     -4.791065   -2.020638   -0.473320
C     -3.537775   -1.442226   -0.196960
N     -3.514453   -0.035815    0.009483
C     -2.896159    0.882323   -0.833876
C     -2.142082    0.704027   -2.010210
C     -1.641229    1.836872   -2.656838
C     -1.882563    3.110627   -2.157001
C     -2.650537    3.282956   -1.002382
C     -3.177544    2.156033   -0.334806
C     -4.015143    1.999861    0.811223
C     -4.619120    2.912665    1.703228
C     -5.410583    2.438845    2.753820
C     -5.603296    1.073659    2.929860
C     -5.016281    0.149234    2.061532
C     -4.232272    0.633606    0.995650
C     -2.363727   -2.222307   -0.176080
C     -1.058247   -1.705297    0.238491
N     -0.730482   -0.607253    0.886382
N      0.638452   -0.636205    1.055350
C      1.056844   -1.760445    0.516529
C      2.391882   -2.345121    0.458353
C      2.534569   -3.737836    0.608316
C      3.796634   -4.334112    0.689476
C      4.944320   -3.549449    0.629706
C      4.834227   -2.170018    0.469931
C      3.565439   -1.572624    0.368335
N      3.521002   -0.176593    0.102094
C      4.115500    0.804812    0.888347
C      4.769809    0.725079    2.133662
C      5.246870    1.904415    2.712210
C      5.071268    3.129873    2.080526
C      4.406478    3.204818    0.852963
C      3.914163    2.028211    0.247153
C      3.215657    1.770950   -0.971556
C      2.772067    2.598173   -2.026251
C      2.154079    2.029952   -3.143518
C      1.973584    0.654439   -3.224162
C      2.391452   -0.185243   -2.188377
C      2.996868    0.394270   -1.055033
O      0.034576   -2.496855   -0.024001
C     -2.495488   -3.592293   -0.483771
H     -3.808432   -5.224043   -1.004973
H     -5.853702   -3.820993   -0.988855
H     -5.692819   -1.410426   -0.498609
H     -1.942414   -0.283200   -2.413482
H     -1.047596    1.717440   -3.559206
H     -1.474967    3.979390   -2.666685
H     -2.844804    4.282252   -0.624466
H     -4.466675    3.980642    1.577457
H     -5.869781    3.144711    3.441115
H     -6.209955    0.718137    3.759433
H     -5.154766   -0.915396    2.223946
H      1.654841   -4.373685    0.696111
H      3.881178   -5.411228    0.814055
H      5.925998   -4.012573    0.695782
H      5.741029   -1.573137    0.386222
H      4.890317   -0.222391    2.650223
H      5.751773    1.862033    3.674475
H      5.443359    4.038630    2.546568
H      4.265174    4.167578    0.370567
H      2.921081    3.672742   -1.976573
H      1.819066    2.670414   -3.954998
H      1.500385    0.223963   -4.103270
H      2.253706   -1.258343   -2.273095
H     -1.624700   -4.246230   -0.475965
