97

C      9.091497    0.032280    1.770865
C      8.067593   -0.037143    0.647733
C      7.427035   -1.423003    0.562592
C      6.472889   -1.584644   -0.625884
C      5.221667   -0.708493   -0.522191
C      4.259791   -0.880858   -1.703167
C      3.642957   -2.273801   -1.866165
C      2.775699   -2.738030   -0.691153
N      1.584844   -1.931874   -0.516967
C      1.432628   -0.990062    0.489630
O      2.226471   -0.668316    1.357144
C      0.106721   -0.464235    0.300747
C     -0.695820    0.475056    0.886409
C     -0.470922    1.347386    2.042256
C     -0.304894    0.749750    3.302184
C     -0.193745    1.526875    4.459121
C     -0.254447    2.915991    4.379171
C     -0.408319    3.535790    3.140363
C     -0.495780    2.755279    1.976844
N     -0.569824    3.433296    0.732045
C     -1.588374    4.302709    0.356641
C     -2.759434    4.704597    1.028454
C     -3.638234    5.571174    0.372849
C     -3.370875    6.017326   -0.916177
C     -2.216071    5.600628   -1.584461
C     -1.311517    4.725433   -0.944987
C     -0.074590    4.131345   -1.341876
C      0.705766    4.207792   -2.515974
C      1.935815    3.545827   -2.577457
C      2.400027    2.819262   -1.486898
C      1.639068    2.713216   -0.320051
C      0.387717    3.359294   -0.274653
S     -2.223235    0.503880    0.067419
C     -1.764585   -0.730811   -1.056924
C     -2.710521   -1.169454   -2.084843
C     -2.434964   -0.840632   -3.421637
C     -3.348611   -1.136696   -4.437360
C     -4.556918   -1.761037   -4.133371
C     -4.848954   -2.109507   -2.816807
C     -3.922598   -1.830549   -1.799966
N     -4.238747   -2.255367   -0.482066
C     -3.501208   -3.169459    0.264141
C     -2.381012   -3.954405   -0.073560
C     -1.827715   -4.782948    0.905965
C     -2.380805   -4.846515    2.179940
C     -3.517800   -4.096193    2.496796
C     -4.099456   -3.255747    1.522365
C     -5.262461   -2.427050    1.507981
C     -6.258228   -2.136883    2.466128
C     -7.298449   -1.260177    2.145033
C     -7.355173   -0.665700    0.889795
C     -6.381981   -0.934664   -0.076284
C     -5.347534   -1.835079    0.245850
C     -0.479082   -1.115837   -0.798644
C      0.466807   -2.060786   -1.327293
O      0.300639   -2.810174   -2.275037
H      9.554077    1.023575    1.800538
H      8.620753   -0.149945    2.741683
H      9.884784   -0.708202    1.627732
H      7.304423    0.727705    0.825057
H      8.559156    0.205828   -0.302100
H      8.221226   -2.175007    0.466021
H      6.894339   -1.645500    1.495705
H      6.180139   -2.639570   -0.671557
H      7.006504   -1.360970   -1.558142
H      4.706973   -0.911603    0.422405
H      5.516180    0.347364   -0.493542
H      4.792697   -0.628472   -2.629058
H      3.454812   -0.143773   -1.607733
H      3.037338   -2.269783   -2.781684
H      4.435733   -3.011567   -2.033962
H      3.351440   -2.751317    0.239732
H      2.449482   -3.765701   -0.892268
H     -0.279293   -0.334952    3.396099
H     -0.065783    1.042970    5.424674
H     -0.168874    3.516804    5.281234
H     -0.419905    4.622216    3.086687
H     -2.992324    4.342604    2.025565
H     -4.547119    5.892184    0.876378
H     -4.066871    6.688614   -1.412697
H     -2.018309    5.949469   -2.593809
H      0.361630    4.795500   -3.362580
H      2.541058    3.618472   -3.477205
H      3.372557    2.335590   -1.536276
H      2.021229    2.158802    0.533581
H     -1.508892   -0.329851   -3.680576
H     -3.118305   -0.870693   -5.466552
H     -5.265015   -1.988286   -4.926226
H     -5.781400   -2.625031   -2.596917
H     -1.957393   -3.932595   -1.074024
H     -0.960849   -5.393283    0.661570
H     -1.942448   -5.499097    2.930653
H     -3.960305   -4.173113    3.486368
H     -6.216985   -2.591821    3.451407
H     -8.062635   -1.038093    2.885669
H     -8.162282    0.025291    0.657129
H     -6.424288   -0.442817   -1.043585
