78

O     -0.149553    1.087517    1.919521
C     -0.901969    1.626933    1.113740
C     -2.228273    1.047184    0.770465
C     -2.999488    1.527084   -0.295276
C     -4.239919    0.946802   -0.577462
C     -4.720758   -0.118305    0.196953
N     -5.982060   -0.715046   -0.101276
C     -6.104749   -1.724344   -1.112364
C     -5.011604   -2.192111   -1.862808
C     -5.176808   -3.180446   -2.839397
C     -6.436202   -3.721321   -3.082216
C     -7.531515   -3.275845   -2.346858
C     -7.365166   -2.287883   -1.370614
O     -8.505608   -1.920901   -0.693409
C     -8.389302   -0.953040    0.278281
C     -9.574580   -0.610522    0.937597
C     -9.563382    0.363878    1.932526
C     -8.368551    0.995518    2.265727
C     -7.183569    0.651666    1.605770
C     -7.171441   -0.332546    0.601491
C     -3.943308   -0.598278    1.259333
C     -2.703566   -0.020864    1.542769
C     -0.455549    2.894817    0.521265
C     -0.908844    4.097333    1.072238
C     -0.453610    5.308780    0.547626
C      0.452681    5.319072   -0.516376
C      0.913380    4.117970   -1.059413
C      0.465092    2.905022   -0.527335
C      0.917785    1.648695   -1.139314
O      0.175017    1.126587   -1.964866
C      2.239075    1.060423   -0.790605
C      2.721202    0.003786   -1.574268
C      3.956667   -0.580559   -1.285969
C      4.722783   -0.119066   -0.207225
N      5.979774   -0.722440    0.096225
C      6.092363   -1.736764    1.103353
C      4.991923   -2.207403    1.841205
C      5.147344   -3.199722    2.815213
C      6.403936   -3.742848    3.067287
C      7.506190   -3.295439    2.343884
C      7.349886   -2.302469    1.370929
O      8.496983   -1.932785    0.706754
C      8.390692   -0.959785   -0.260856
C      9.582989   -0.613576   -0.905940
C      9.582070    0.366376   -1.895206
C      8.390395    0.999686   -2.237157
C      7.198655    0.652576   -1.591330
C      7.176090   -0.337234   -0.592854
C      4.234696    0.934676    0.578523
C      2.998968    1.521935    0.291288
H     -2.649533    2.332829   -0.934710
H     -4.832621    1.316386   -1.411435
H     -4.011607   -1.798645   -1.699628
H     -4.316776   -3.526358   -3.407870
H     -6.564035   -4.489522   -3.840354
H     -8.516267   -3.696857   -2.529334
H    -10.504341   -1.105473    0.671191
H    -10.483977    0.630795    2.444977
H     -8.354323    1.758841    3.039956
H     -6.271989    1.169195    1.890602
H     -4.302575   -1.430416    1.860139
H     -2.108293   -0.411274    2.366146
H     -1.601385    4.095025    1.910495
H     -0.802839    6.248460    0.970542
H      0.798144    6.266869   -0.924476
H      1.606446    4.131717   -1.897297
H      2.134649   -0.372236   -2.410454
H      4.321152   -1.403941   -1.895856
H      3.993677   -1.812613    1.670704
H      4.281842   -3.545997    3.374865
H      6.524001   -4.514352    3.823444
H      8.488614   -3.718416    2.533653
H     10.510370   -1.109769   -0.632780
H     10.508241    0.635826   -2.396764
H      8.384415    1.766885   -3.007452
H      6.290039    1.171975   -1.882401
H      4.818352    1.290097    1.424940
H      2.643354    2.318195    0.939588
