102

C      7.235259   -1.432810   -2.194784
C      7.597719   -1.936361   -0.824290
C      8.761841   -2.715786   -0.694927
C      9.164587   -3.206402    0.546190
C      8.413258   -2.921086    1.679127
C      7.265692   -2.135680    1.569287
C      6.846889   -1.616549    0.327630
C      5.623292   -0.791987    0.287368
C      4.379581   -1.452111    0.240602
C      3.173371   -0.765289    0.223721
N      2.014227   -1.440575    0.173928
C      0.845181   -0.750918    0.161204
C     -0.379184   -1.439203    0.106956
C     -0.394164   -2.853494    0.063847
C     -1.579354   -3.583266    0.007952
C     -2.796775   -2.914899   -0.006049
N     -4.023982   -3.639500   -0.065086
C     -4.633311   -4.168063    1.120024
C     -4.076438   -4.010906    2.401384
C     -4.706890   -4.541117    3.532297
C     -5.906154   -5.236103    3.403770
C     -6.477137   -5.399504    2.144386
C     -5.846213   -4.868500    1.014657
O     -6.493332   -5.075626   -0.182072
C     -5.911645   -4.565977   -1.320303
C     -6.605250   -4.799810   -2.512203
C     -6.095361   -4.330047   -3.719858
C     -4.892213   -3.630077   -3.734807
C     -4.199308   -3.396891   -2.541891
C     -4.699229   -3.857018   -1.310927
C     -2.801888   -1.512159    0.037197
C     -1.611584   -0.738489    0.093435
C     -1.599838    0.690396    0.135267
C     -2.777212    1.485507    0.125497
C     -2.748769    2.888012    0.164364
N     -3.963634    3.635016    0.149534
C     -4.623291    3.956430   -1.081941
C     -4.120551    3.579015   -2.339603
C     -4.798202    3.912724   -3.517246
C     -5.988752    4.631807   -3.459938
C     -6.501378    5.020115   -2.224907
C     -5.823168    4.685756   -1.048212
O     -6.406922    5.118997    0.120191
C     -5.774671    4.811856    1.303374
C     -6.406690    5.268649    2.464540
C     -5.849260    5.003317    3.712597
C     -4.662520    4.280693    3.798256
C     -4.031151    3.824364    2.636123
C     -4.574688    4.084539    1.365851
C     -1.520663    3.534497    0.216574
C     -0.347743    2.783308    0.228674
C     -0.356100    1.368804    0.188654
C      0.856686    0.658405    0.201623
N      2.036753    1.327054    0.251994
C      3.184555    0.631196    0.262771
C      4.401416    1.297877    0.312182
C      5.636638    0.620125    0.315001
C      6.880208    1.418148    0.360507
C      7.652566    1.418689    1.537955
C      8.824019    2.169776    1.640238
C      9.241082    2.949707    0.569217
C      8.487536    2.977871   -0.602670
C      7.312891    2.213779   -0.726839
C      6.529411    2.324581   -2.008900
H      7.738193   -0.480968   -2.387035
H      7.546352   -2.148880   -2.963658
H      6.155685   -1.302680   -2.312678
H      9.363567   -2.946772   -1.571785
H     10.064356   -3.810576    0.625879
H      8.720199   -3.303808    2.648520
H      6.692410   -1.917989    2.468719
H      4.351267   -2.540642    0.215439
H      0.544423   -3.408727    0.072243
H     -1.549511   -4.669162   -0.027091
H     -3.144064   -3.471182    2.542860
H     -4.257959   -4.407614    4.513465
H     -6.396360   -5.647377    4.282125
H     -7.414799   -5.938081    2.038014
H     -7.542312   -5.349467   -2.494495
H     -6.633844   -4.511247   -4.646471
H     -4.487565   -3.263873   -4.675213
H     -3.260977   -2.851753   -2.595035
H     -3.779243   -1.036144    0.026898
H     -3.762323    1.027245    0.088342
H     -3.192156    3.021139   -2.425639
H     -4.391604    3.609637   -4.479013
H     -6.515362    4.890908   -4.374693
H     -7.428746    5.584019   -2.174172
H     -7.334495    5.829331    2.391305
H     -6.340045    5.357118    4.615399
H     -4.223942    4.068269    4.770128
H     -3.108477    3.260766    2.744247
H     -1.473272    4.619943    0.246185
H      0.599785    3.321584    0.269820
H      4.386895    2.386266    0.350502
H      7.337701    0.827140    2.395172
H      9.405075    2.146619    2.558010
H     10.149838    3.540539    0.646282
H      8.822898    3.603849   -1.427168
H      6.065559    1.373597   -2.285071
H      7.181586    2.606918   -2.842667
H      5.751224    3.087250   -1.906161
