56

N      7.285012   -1.357800   -0.863868
C      6.264313   -0.817581   -0.747677
C      5.006952   -0.144434   -0.603588
C      4.093323   -0.128268   -1.659985
C      2.865457    0.525511   -1.515823
C      2.524988    1.165271   -0.314168
C      1.226237    1.843845   -0.153304
C      1.200033    3.250257   -0.148480
C      0.000399    3.949827   -0.000227
C      0.000530    5.383419   -0.000286
N      0.000641    6.543579   -0.000332
C     -1.199356    3.250485    0.148105
C     -1.225794    1.844082    0.153054
C     -2.524630    1.165730    0.314140
C     -3.459364    1.153365   -0.734203
C     -4.688724    0.501615   -0.593577
C     -5.006714   -0.143622    0.604050
C     -6.264137   -0.816603    0.748390
N     -7.284882   -1.356689    0.864791
C     -4.093144   -0.127028    1.660491
C     -2.865211    0.526569    1.516082
C      0.000155    1.132814   -0.000123
N     -0.000003   -0.309571   -0.000116
C      0.339060   -1.055843    1.178619
C      0.671113   -0.447046    2.402262
C      0.993286   -1.212776    3.527658
C      0.985006   -2.602236    3.452878
C      0.650483   -3.226069    2.254130
C      0.328410   -2.458863    1.129969
O     -0.000637   -3.170215   -0.000036
C     -0.329339   -2.458783   -1.130089
C     -0.651750   -3.225906   -2.254210
C     -0.985968   -2.601994   -3.453002
C     -0.993603   -1.212536   -3.527869
C     -0.671102   -0.446888   -2.402510
C     -0.339357   -1.055764   -1.178821
C      3.459783    1.153311    0.734132
C      4.689082    0.501398    0.593748
H      4.324415   -0.626452   -2.599739
H      2.169437    0.523707   -2.351903
H      2.132605    3.802933   -0.269122
H     -2.131830    3.803329    0.268726
H     -3.227629    1.640524   -1.679506
H     -5.389314    0.497302   -1.426525
H     -4.324329   -0.624741    2.600470
H     -2.169224    0.525089    2.352189
H      0.682186    0.633815    2.503529
H      1.249832   -0.721417    4.463015
H      1.235480   -3.199224    4.326014
H      0.637479   -4.310949    2.190996
H     -0.639248   -4.310789   -2.191011
H     -1.236705   -3.198921   -4.326104
H     -1.249898   -0.721115   -4.463263
H     -0.681669    0.633972   -2.503842
H      3.228145    1.640940    1.679217
H      5.389723    0.497433    1.426655
