80

O      2.302684   -2.645389    2.747153
C      2.362155   -2.074940    1.660975
C      1.160615   -2.055139    0.786810
C      1.261423   -2.076467   -0.609070
C      0.102892   -2.075009   -1.391799
C     -1.160652   -2.055192   -0.786783
C     -2.362195   -2.075040   -1.660945
O     -2.302734   -2.645556   -2.747087
C     -3.632299   -1.422508   -1.257150
C     -3.646791   -0.208514   -0.564350
C     -4.866830    0.379950   -0.214209
C     -6.090660   -0.223082   -0.558115
N     -7.346784    0.387553   -0.194149
C     -7.508525    1.819142   -0.291672
C     -6.988392    2.533580   -1.385631
C     -7.144092    3.919117   -1.479003
C     -7.821636    4.613797   -0.479901
C     -8.345039    3.925276    0.611821
C     -8.190591    2.539593    0.704854
C     -8.443848   -0.432080    0.264499
C     -8.224549   -1.517567    1.131323
C     -9.286608   -2.310540    1.574290
C    -10.586057   -2.032276    1.157647
C    -10.825527   -0.961919    0.299462
C     -9.763772   -0.168280   -0.142779
C     -6.054815   -1.432958   -1.273726
C     -4.838141   -2.024373   -1.627240
C     -1.261459   -2.076431    0.609099
C     -0.102930   -2.074919    1.391827
C      3.632266   -1.422441    1.257152
C      4.838097   -2.024310    1.627265
C      6.054780   -1.432918    1.273744
C      6.090643   -0.223060    0.558105
N      7.346779    0.387551    0.194139
C      8.443830   -0.432114   -0.264489
C      9.763752   -0.168357    0.142823
C     10.825494   -0.962015   -0.299412
C     10.586011   -2.032353   -1.157617
C      9.286561   -2.310579   -1.574286
C      8.224516   -1.517585   -1.131327
C      7.508555    1.819138    0.291648
C      6.988405    2.533608    1.385577
C      7.144155    3.919141    1.478939
C      7.821764    4.613785    0.479855
C      8.345181    3.925232   -0.611840
C      8.190683    2.539554   -0.704863
C      4.866822    0.379977    0.214170
C      3.646775   -0.208470    0.564312
H      2.228088   -2.119416   -1.104881
H      0.186437   -2.101617   -2.477440
H     -2.724202    0.301654   -0.300969
H     -4.858017    1.315312    0.341918
H     -6.473851    2.008637   -2.187067
H     -6.740238    4.452683   -2.335472
H     -7.943458    5.691430   -0.552958
H     -8.872509    4.464607    1.394255
H     -8.593441    2.023785    1.573450
H     -7.221150   -1.742248    1.484303
H     -9.097236   -3.142703    2.247302
H    -11.412045   -2.649486    1.501523
H    -11.837821   -0.744334   -0.031009
H     -9.971674    0.651387   -0.826711
H     -6.980502   -1.913650   -1.583499
H     -4.836192   -2.952862   -2.195049
H     -2.228124   -2.119351    1.104913
H     -0.186475   -2.101456    2.477470
H      4.836135   -2.952784    2.195099
H      6.980459   -1.913613    1.583533
H      9.971659    0.651293    0.826772
H     11.837786   -0.744461    0.031081
H     11.411988   -2.649576   -1.501492
H      9.097180   -3.142729   -2.247311
H      7.221117   -1.742232   -1.484326
H      6.473814    2.008695    2.187001
H      6.740283    4.452737    2.335384
H      7.943623    5.691414    0.552906
H      8.872697    4.464534   -1.394262
H      8.593543    2.023721   -1.573440
H      4.858024    1.315324   -0.341978
H      2.724191    0.301696    0.300909
