72

C     -8.837669    2.191531    1.334751
C     -8.501152    0.741145    1.671266
N     -7.852834    0.044265    0.539004
C     -8.699935   -0.649469   -0.374585
C    -10.097940   -0.441859   -0.417143
C    -10.935232   -1.111804   -1.318372
C    -10.400403   -2.017965   -2.217329
C     -9.029884   -2.246569   -2.210517
C     -8.183477   -1.572596   -1.306968
S     -6.462844   -2.003270   -1.411764
C     -5.704001   -0.774831   -0.374730
C     -4.293491   -0.726372   -0.432627
C     -3.545800    0.167594    0.342225
C     -2.080271    0.185329    0.277719
C     -1.298662   -0.986731    0.404472
C      0.114708   -1.005619    0.343188
C      0.911798    0.144857    0.143305
C      2.376545    0.090390    0.087459
C      3.111716   -0.534446    1.106795
C      4.509443   -0.604950    1.054601
C      5.222560   -0.053243   -0.020815
N      6.663010   -0.121871   -0.072909
C      7.343066   -1.326283    0.341878
C      8.525099   -1.265374    1.101106
C      9.182259   -2.431070    1.503627
C      8.669380   -3.677570    1.152821
C      7.500192   -3.760492    0.400491
C      6.842279   -2.594856   -0.001036
C      7.424944    1.014294   -0.536323
C      8.552688    0.842995   -1.358980
C      9.289759    1.942100   -1.808135
C      8.912485    3.231714   -1.441858
C      7.799209    3.424096   -0.627511
C      7.061746    2.325093   -0.178837
C      4.488444    0.568835   -1.042031
C      3.090657    0.637595   -0.988527
C      0.185007    1.366981    0.006206
N      0.706185    2.593763   -0.181495
S     -0.558258    3.653406   -0.282515
N     -1.838054    2.626562   -0.081218
C     -1.335155    1.387651    0.074841
C     -4.258372    1.017407    1.186307
C     -5.660006    0.973699    1.248004
C     -6.429753    0.077293    0.478156
H     -9.522166    2.266971    0.485074
H     -9.315079    2.672879    2.194216
H     -7.945738    2.770463    1.078841
H     -9.407219    0.214756    1.996734
H     -7.875880    0.703927    2.572208
H    -10.588376    0.266072    0.242361
H    -12.004321   -0.914899   -1.313481
H    -11.040801   -2.542514   -2.920548
H     -8.616275   -2.961209   -2.919531
H     -3.772136   -1.400753   -1.111443
H     -1.806219   -1.939613    0.568787
H      0.609558   -1.973382    0.447107
H      2.603153   -0.962100    1.968604
H      5.041077   -1.077140    1.877649
H      8.932997   -0.302582    1.400180
H     10.092453   -2.362475    2.093543
H      9.181211   -4.584088    1.465174
H      7.100033   -4.731423    0.120757
H      5.941265   -2.681496   -0.603642
H      8.854398   -0.153814   -1.671983
H     10.155295    1.788270   -2.447092
H      9.485362    4.086626   -1.791364
H      7.503120    4.428655   -0.336991
H      6.206033    2.498124    0.469816
H      4.999478    0.995212   -1.902276
H      2.563574    1.125928   -1.806341
H     -3.733904    1.737091    1.812989
H     -6.120878    1.691159    1.918656
