65

N    -10.978444    0.000015   -0.000039
C     -9.817835    0.000010   -0.000031
C     -8.384177    0.000006   -0.000021
C     -7.682297    0.470236    1.114063
C     -6.284414    0.469885    1.113222
C     -5.568588    0.000005   -0.000003
C     -4.085950    0.000005    0.000006
C     -3.380449    1.144936   -0.483898
C     -4.046443    2.301206   -0.972583
C     -3.361931    3.419826   -1.445662
C     -1.981057    3.419239   -1.445669
C     -1.297671    2.300155   -0.972477
C     -1.964761    1.144664   -0.483881
C     -1.259405    0.000002    0.000024
C      0.223069   -0.000002    0.000023
C      0.938847   -0.463416   -1.114983
C      2.336550   -0.465956   -1.117136
C      3.039141    0.000001    0.000012
N      4.466637   -0.000002    0.000006
C      5.274275   -1.046013   -0.454197
C      4.958800   -2.333716   -0.938262
C      5.999188   -3.190835   -1.309007
C      7.324084   -2.795553   -1.186433
C      7.637594   -1.535421   -0.672174
C      6.604197   -0.652008   -0.287745
C      6.604203    0.651998    0.287727
C      7.637609    1.535407    0.672139
C      7.324110    2.795542    1.186399
C      5.999218    3.190829    1.308990
C      4.958821    2.333713    0.938265
C      5.274284    1.046007    0.454197
C      2.336559    0.465958    1.117165
C      0.938855    0.463414    1.115024
C     -1.964769   -1.144659    0.483919
C     -1.297688   -2.300155    0.972518
C     -1.981084   -3.419241    1.445691
C     -3.361958   -3.419827    1.445665
C     -4.046460   -2.301202    0.972585
C     -3.380457   -1.144929    0.483917
C     -6.284400   -0.469877   -1.113236
C     -7.682283   -0.470227   -1.114095
H     -8.214841    0.839387    1.988699
H     -5.748708    0.838563    1.986761
H     -5.133878    2.347311   -0.992006
H     -3.911919    4.282814   -1.810700
H     -1.429634    4.281301   -1.810749
H     -0.209811    2.344390   -0.991718
H      0.403754   -0.818052   -1.994218
H      2.855167   -0.794321   -2.014871
H      3.932349   -2.679261   -1.012174
H      5.765648   -4.182690   -1.689420
H      8.122807   -3.473265   -1.476719
H      8.677264   -1.241039   -0.559619
H      8.677276    1.241021    0.559569
H      8.122840    3.473253    1.476670
H      5.765688    4.182687    1.689403
H      3.932372    2.679261    1.012192
H      2.855183    0.794324    2.014896
H      0.403768    0.818052    1.994262
H     -0.209829   -2.344391    0.991773
H     -1.429667   -4.281307    1.810772
H     -3.911952   -4.282818    1.810686
H     -5.133896   -2.347304    0.991991
H     -5.748682   -0.838558   -1.986767
H     -8.214816   -0.839378   -1.988737
