123

C      8.038992   -0.788165    2.079132
C      6.966191   -0.854883    0.960831
C      7.274194   -2.038044    0.006674
C      7.036991    0.447802    0.151754
C      8.245539    0.802123   -0.505249
C      8.390354    1.979093   -1.254069
C      9.660818    2.308498   -1.919129
C     10.866488    2.346932   -1.198492
C     12.074224    2.655716   -1.830314
C     12.096732    2.930824   -3.195136
C     10.912925    2.898830   -3.927998
C      9.705701    2.591222   -3.294457
C      7.286298    2.823432   -1.340810
C      6.086387    2.495736   -0.701997
C      5.931623    1.308131    0.047700
N      4.683944    0.992586    0.690286
C      3.573681    1.893104    0.562793
C      2.729512    1.819976   -0.557793
C      1.642535    2.686221   -0.678264
C      1.396765    3.622206    0.332325
S     -0.024474    4.685303    0.200356
O      0.160776    5.451986   -1.017549
O     -0.211823    5.344440    1.479418
C     -1.442259    3.632994   -0.022241
C     -2.270328    3.807758   -1.134520
C     -3.353422    2.948146   -1.321575
C     -3.606974    1.915876   -0.403078
N     -4.705838    1.016892   -0.612160
C     -4.527733   -0.133277   -1.457794
C     -3.286332   -0.396299   -2.079567
C     -3.088761   -1.500411   -2.913976
C     -4.125834   -2.395485   -3.164369
C     -3.937408   -3.557156   -4.047926
C     -2.890264   -4.469078   -3.833562
C     -2.711270   -5.571547   -4.673844
C     -3.577171   -5.780785   -5.744224
C     -4.621570   -4.889098   -5.974959
C     -4.799257   -3.787346   -5.133765
C     -5.357739   -2.146085   -2.541745
C     -5.581505   -1.032389   -1.688506
C     -6.957703   -0.838529   -1.036055
C     -8.015254   -0.712248   -2.163458
C     -7.262447   -2.086675   -0.166968
C     -7.057159    0.406007   -0.142576
C     -8.277077    0.696930    0.524396
C     -8.448112    1.820670    1.345638
C     -9.726649    2.081244    2.024819
C    -10.399357    3.303139    1.859540
C    -11.614406    3.549337    2.504859
C    -12.175796    2.577379    3.329010
C    -11.524767    1.359445    3.507239
C    -10.311035    1.114212    2.859680
C     -7.361450    2.679011    1.492638
C     -6.149618    2.411659    0.848345
C     -5.967017    1.275159    0.029044
C     -2.772344    1.762287    0.716471
C     -1.691147    2.621852    0.911986
C      2.232258    3.714514    1.448882
C      3.321550    2.849765    1.560390
C      4.533833   -0.212283    1.462426
C      3.306147   -0.531724    2.084918
C      3.135381   -1.691420    2.847052
C      4.185635   -2.590119    3.016976
C      4.023467   -3.813888    3.817912
C      4.328425   -5.076099    3.281614
C      4.176646   -6.238335    4.042658
C      3.717241   -6.157251    5.354739
C      3.408971   -4.916327    5.906067
C      3.560473   -3.755250    5.143213
C      5.404378   -2.283689    2.394218
C      5.601822   -1.111294    1.616413
H      7.839773    0.044924    2.764886
H      8.074893   -1.703420    2.679625
H      9.049608   -0.648248    1.680631
H      6.524477   -2.104179   -0.792106
H      8.254562   -1.944251   -0.473018
H      7.282584   -3.002658    0.526316
H      9.104557    0.135299   -0.441997
H     10.869898    2.147065   -0.128644
H     12.995719    2.683773   -1.254521
H     13.035749    3.170765   -3.687023
H     10.926745    3.110643   -4.993919
H      8.793855    2.561229   -3.887874
H      7.348653    3.756899   -1.896299
H      5.268742    3.204948   -0.803069
H      2.928559    1.083442   -1.333241
H      1.002927    2.625819   -1.555644
H     -2.082130    4.600062   -1.855960
H     -4.003505    3.072207   -2.185069
H     -2.434666    0.261452   -1.929193
H     -2.114755   -1.642728   -3.377187
H     -2.208915   -4.331460   -2.996114
H     -1.896691   -6.267240   -4.489116
H     -3.438154   -6.637642   -6.398282
H     -5.297418   -5.047114   -6.811451
H     -5.613993   -3.095811   -5.339820
H     -6.166211   -2.853997   -2.720686
H     -7.814716    0.163432   -2.793674
H     -8.033368   -1.589092   -2.819809
H     -9.033023   -0.605906   -1.772339
H     -8.250781   -2.037977    0.302551
H     -7.249730   -3.014353   -0.749448
H     -6.523798   -2.195655    0.637247
H     -9.131196    0.034153    0.392071
H     -9.983084    4.072298    1.212213
H    -12.121204    4.500049    2.360979
H    -13.119784    2.768817    3.832509
H    -11.957808    0.600103    4.152952
H     -9.812825    0.160646    3.021800
H     -7.439010    3.562558    2.122587
H     -5.342763    3.122543    1.007834
H     -2.973001    0.967150    1.431144
H     -1.057880    2.496876    1.787065
H      2.046114    4.448230    2.230395
H      3.979390    2.912532    2.424657
H      2.443040    0.121013    1.987126
H      2.164387   -1.887671    3.296985
H      4.678062   -5.162569    2.254825
H      4.415144   -7.205643    3.608445
H      3.599281   -7.060625    5.947200
H      3.052784   -4.849171    6.930807
H      3.324746   -2.794730    5.597069
H      6.230558   -2.980047    2.531295
