73

C     -7.515973    1.062058   -3.545108
C     -6.157965    0.766594   -3.625184
C     -5.391789    0.658087   -2.459674
C     -5.970969    0.841686   -1.191774
C     -7.341847    1.142062   -1.134865
C     -8.108773    1.250741   -2.299341
O     -8.017649    1.349173    0.045851
C     -7.302319    1.253425    1.217552
C     -8.030570    1.470286    2.391701
C     -7.397897    1.390911    3.629583
C     -6.039293    1.093976    3.692089
C     -5.311788    0.877371    2.516901
C     -5.930300    0.955297    1.256734
N     -5.224868    0.739420    0.027819
C     -3.833352    0.427307    0.019077
C     -2.880778    1.437837    0.030337
C     -1.527594    1.107533    0.021081
C     -1.077373   -0.233989    0.000212
C     -2.034601   -1.279701   -0.011423
C     -3.406034   -0.909134   -0.001241
C     -1.583277   -2.636353   -0.032592
C     -2.457920   -3.756478   -0.045958
C     -1.993431   -5.073107   -0.066958
C     -0.633391   -5.318014   -0.075443
C      0.252071   -4.243495   -0.062669
C     -0.190145   -2.899187   -0.041190
C      0.746005   -1.850636   -0.028947
N      2.076718   -2.122715   -0.036662
C      2.953352   -1.107208   -0.025198
C      4.317769   -1.365463   -0.033333
C      5.283952   -0.339199   -0.022367
C      6.709669   -0.716953   -0.044940
C      7.538615   -0.371863   -1.117970
C      8.871346   -0.750923   -1.085267
N      9.428421   -1.450392   -0.075084
C      8.617097   -1.783729    0.948753
C      7.274095   -1.446700    1.008632
C      4.836818    1.001627   -0.001429
C      5.750467    2.159412    0.024837
C      5.766736    3.083109   -1.027610
C      6.638574    4.158618   -0.964201
N      7.484987    4.377634    0.062063
C      7.456527    3.482654    1.071134
C      6.617846    2.379619    1.100386
C      3.448010    1.242640    0.005895
C      2.511648    0.217196   -0.005746
N      1.200843    0.503366    0.002430
C      0.300280   -0.512960   -0.008582
H     -8.111075    1.147099   -4.450525
H     -5.689278    0.620807   -4.595382
H     -4.334428    0.430097   -2.563179
H     -9.167821    1.483805   -2.230707
H     -9.091084    1.700256    2.336737
H     -7.963027    1.559368    4.542490
H     -5.540312    1.029642    4.655984
H     -4.253815    0.646434    2.606699
H     -3.187578    2.480395    0.045250
H     -0.805467    1.924513    0.030382
H     -4.189043   -1.662805   -0.007767
H     -3.536985   -3.627252   -0.040274
H     -2.699043   -5.899851   -0.076689
H     -0.255966   -6.336734   -0.092066
H      1.319858   -4.464182   -0.070130
H      4.636135   -2.407008   -0.061063
H      7.160111    0.185464   -1.968502
H      9.545191   -0.493816   -1.897663
H      9.088926   -2.347313    1.748627
H      6.683271   -1.745605    1.868615
H      5.116995    2.968679   -1.889421
H      6.679777    4.893584   -1.763057
H      8.147734    3.680444    1.885548
H      6.647348    1.705690    1.950229
H      3.077630    2.266846    0.033551
