128

C     -8.752379   -2.965802    4.437685
C     -7.861110   -3.757835    3.456621
C     -8.750835   -4.668612    2.583067
C     -6.957049   -4.681032    4.304822
C     -7.082701   -2.780609    2.560355
C     -5.691445   -2.732688    2.519353
C     -5.025945   -1.824518    1.686677
C     -5.712770   -0.916911    0.852324
C     -7.114126   -0.946262    0.875176
C     -7.767465   -1.876614    1.728251
C     -7.949874    0.000511    0.001227
C     -8.845009    0.858071    0.933727
C     -8.837350   -0.860684   -0.935257
C     -7.114013    0.950476   -0.869149
C     -7.767207    1.878542   -1.724828
C     -7.082332    2.784333   -2.554896
C     -7.860582    3.758765   -3.454328
C     -8.751527    2.964363   -4.433800
C     -8.750602    4.671400   -2.583182
C     -6.956417    4.679685   -4.304826
C     -5.691107    2.741360   -2.508331
C     -5.025755    1.835745   -1.672763
C     -5.712681    0.925769   -0.841051
N     -5.003670    0.005466    0.006814
C     -3.569381    0.006440    0.007786
C     -2.849893    0.805325    0.906627
F     -3.499426    1.585821    1.783269
C     -1.455801    0.803378    0.904017
F     -0.798255    1.583727    1.776045
C     -0.731231    0.009472    0.008079
C      0.731215    0.010947    0.007355
C      1.453644    0.800010   -0.894641
F      0.793929    1.573928   -1.770765
C      2.847694    0.802777   -0.900059
F      3.494989    1.577633   -1.783337
C      3.569398    0.009502    0.001907
N      5.003688    0.006589   -0.002244
C      5.708278   -0.917628   -0.849565
C      5.017036   -1.821069   -1.684797
C      5.677977   -2.730333   -2.519909
C      7.068975   -2.784088   -2.562064
C      7.842529   -3.762379   -3.461407
C      6.933937   -4.674588   -4.316623
C      8.723278   -4.683678   -2.589890
C      8.742115   -2.972236   -4.436520
C      7.758156   -1.885350   -1.727871
C      7.109436   -0.953211   -0.873187
C      7.949765   -0.012052    0.002393
C      8.828860   -0.879189    0.941084
C      8.853271    0.838875   -0.928219
C      7.118665    0.944006    0.870618
C      7.776478    1.870619    1.724339
C      7.096099    2.782865    2.551007
C      7.879248    3.755956    3.447686
C      8.779133    4.657389    2.574896
C      6.979720    4.688326    4.290601
C      8.760848    2.959375    4.433744
C      5.704661    2.747076    2.504012
C      5.034815    1.842089    1.671331
C      5.717225    0.925972    0.842738
C      2.850262   -0.782156    0.907395
F      3.500119   -1.558135    1.787811
C      1.456211   -0.777991    0.907335
F      0.799048   -1.551709    1.785543
C     -1.454082   -0.786198   -0.887782
F     -0.794721   -1.564998   -1.759840
C     -2.848069   -0.791135   -0.890685
F     -3.495725   -1.572821   -1.767677
H     -9.291738   -3.639626    5.113694
H     -9.505775   -2.362504    3.919492
H     -8.152703   -2.285046    5.053556
H     -9.290038   -5.400023    3.196389
H     -9.504263   -4.101724    2.025338
H     -8.150014   -5.223807    1.852939
H     -6.314123   -5.306256    3.674278
H     -7.555722   -5.358260    4.925813
H     -6.315493   -4.105739    4.982510
H     -5.079733   -3.393079    3.127419
H     -3.940996   -1.853448    1.715225
H     -8.855727   -1.893803    1.741246
H     -9.502641    0.246671    1.561067
H     -9.502418    1.534525    0.376909
H     -8.234601    1.475274    1.605050
H     -8.221429   -1.475585   -1.603692
H     -9.494502   -0.251953   -1.565708
H     -9.494596   -1.539632   -0.381262
H     -8.855440    1.892418   -1.741612
H     -9.290264    3.636522   -5.111942
H     -9.505606    2.362683   -3.914675
H     -8.151686    2.281839   -5.047519
H     -8.150007    5.228794   -1.854532
H     -9.503557    4.105397   -2.023867
H     -9.290222    5.400906   -3.198413
H     -6.313553    4.102384   -4.979542
H     -7.554969    5.354112   -4.928969
H     -6.314813    5.307910   -3.675998
H     -5.079299    3.403787   -3.114110
H     -3.940806    1.868672   -1.696947
H      3.931949   -1.845492   -1.712558
H      5.062940   -3.386779   -3.128931
H      6.297441   -4.091030   -4.992000
H      7.529204   -5.352242   -4.940432
H      6.285633   -5.299237   -3.691064
H      9.478609   -4.124613   -2.026834
H      9.259468   -5.415542   -3.205348
H      8.116432   -5.238509   -1.864499
H      9.277481   -3.646753   -5.114967
H      8.149136   -2.283474   -5.049997
H      9.499348   -2.377726   -3.913740
H      8.846283   -1.908462   -1.740279
H      8.207097   -1.489352    1.608456
H      9.482301   -1.563101    0.388633
H      9.488784   -0.274698    1.572749
H      8.248844    1.459623   -1.601712
H      9.508691    0.222723   -1.553243
H      9.513837    1.511222   -0.370195
H      8.864776    1.877987    1.742352
H      9.322495    5.385716    3.188247
H      8.185153    5.215862    1.841683
H      9.529487    4.083049    2.020678
H      6.331185    4.119743    4.967293
H      7.581626    5.362163    4.912104
H      6.344065    5.317293    3.656472
H      8.153690    2.285048    5.049256
H      9.511139    2.348724    3.919744
H      9.303266    3.630638    5.109832
H      5.096157    3.414778    3.107308
H      3.950051    1.880960    1.694633
