34

Br     6.759804   -1.345491   -0.000002
C      5.087284   -0.467536    0.000001
C      5.033967    0.919870    0.000020
C      3.789487    1.551190   -0.000016
C      2.608896    0.817062   -0.000005
N      1.426640    1.450029    0.000016
C      0.283497    0.717234   -0.000010
C     -0.965408    1.362577   -0.000004
C     -1.031085    2.777003   -0.000000
C     -2.241230    3.466861    0.000010
C     -3.420559    2.747371   -0.000011
Br    -5.077672    3.656763    0.000001
C     -3.391784    1.352193   -0.000000
C     -2.173616    0.619468    0.000009
C     -2.110215   -0.809612    0.000008
C     -3.257510   -1.648785    0.000001
C     -3.170517   -3.042474   -0.000010
C     -1.929285   -3.649710    0.000002
C     -0.784079   -2.857847    0.000010
C     -0.841840   -1.443671   -0.000005
C      0.345929   -0.691865   -0.000015
N      1.550521   -1.319428    0.000013
C      2.672622   -0.584519    0.000003
C      3.911298   -1.213341   -0.000014
H      5.942131    1.516954   -0.000007
H      3.735782    2.637305    0.000007
H     -0.111452    3.363470    0.000001
H     -2.243228    4.553148   -0.000003
H     -4.347633    0.836680   -0.000001
H     -4.260428   -1.230796   -0.000001
H     -4.074881   -3.645464    0.000005
H     -1.844194   -4.732903   -0.000001
H      0.182786   -3.362127   -0.000003
H      3.945971   -2.299608    0.000003
