64

C      8.554519   -0.000054    0.000056
C      7.857871   -0.469349   -1.112157
C      6.461683   -0.469605   -1.112853
C      5.745188    0.000006   -0.000029
C      4.262416    0.000005   -0.000047
C      3.556806   -1.144676    0.483672
C      4.223478   -2.300448    0.972024
C      3.539706   -3.419426    1.445210
C      2.158741   -3.419525    1.445564
C      1.474628   -2.300660    0.972571
C      2.141154   -1.144756    0.483853
C      1.435763    0.000029    0.000002
C     -0.046671    0.000023    0.000006
C     -0.762421   -0.463278   -1.115032
C     -2.160114   -0.465845   -1.117221
C     -2.862701   -0.000007    0.000001
N     -4.290169   -0.000011   -0.000004
C     -5.097872    1.045937    0.454291
C     -4.782360    2.333578    0.938472
C     -5.822713    3.190698    1.309295
C     -7.147626    2.795469    1.186689
C     -7.461173    1.535378    0.672321
C     -6.427794    0.651964    0.287802
C     -6.427793   -0.651996   -0.287791
C     -7.461171   -1.535418   -0.672295
C     -7.147626   -2.795500   -1.186683
C     -5.822711   -3.190711   -1.309328
C     -4.782359   -2.333588   -0.938512
C     -5.097872   -1.045956   -0.454306
C     -2.160125    0.465833    1.117232
C     -0.762431    0.463298    1.115048
C      2.141153    1.144808   -0.483865
C      1.474630    2.300743   -0.972521
C      2.158753    3.419602   -1.445518
C      3.539718    3.419457   -1.445247
C      4.223485    2.300450   -0.972120
C      3.556807    1.144696   -0.483743
C      6.461636    0.469600    1.112833
C      7.857822    0.469280    1.112222
H      9.641510   -0.000083    0.000090
H      8.400409   -0.835491   -1.979842
H      5.927675   -0.838215   -1.986456
H      5.311466   -2.344175    0.990381
H      4.091074   -4.281568    1.809809
H      1.608040   -4.281864    1.810722
H      0.386891   -2.345081    0.991937
H     -0.226877   -0.817735   -1.994093
H     -2.678534   -0.794145   -2.015046
H     -3.755836    2.679005    1.012384
H     -5.589002    4.182478    1.689786
H     -7.946289    3.473197    1.477037
H     -8.500822    1.240999    0.559736
H     -8.500818   -1.241041   -0.559686
H     -7.946283   -3.473236   -1.477029
H     -5.589003   -4.182477   -1.689853
H     -3.755833   -2.678997   -1.012458
H     -2.678557    0.794111    2.015058
H     -0.226897    0.817753    1.994115
H      0.386891    2.345195   -0.991818
H      1.608061    4.281974   -1.810614
H      4.091096    4.281585   -1.809861
H      5.311474    2.344140   -0.990546
H      5.927596    0.838227    1.986410
H      8.400312    0.835397    1.979946
