70

C      6.297673   -1.891679   -0.773598
C      6.123470   -0.538377   -0.050719
C      6.481414    0.606599   -1.022566
C      7.153899   -0.500742    1.100464
C      4.664878   -0.383459    0.414539
C      3.616059   -0.411970   -0.526816
C      2.279381   -0.271049   -0.139894
C      1.959685   -0.111774    1.205303
O      0.678365    0.074281    1.667932
C     -0.332714   -0.692210    1.135221
C     -0.199379   -2.071885    0.967443
C     -1.257565   -2.827838    0.455447
C     -2.480018   -2.229761    0.118533
C     -3.670422   -3.028576   -0.443211
C     -4.067869   -2.465511   -1.825278
C     -4.873085   -2.912204    0.517989
C     -3.378367   -4.534383   -0.631650
C     -2.599667   -0.839440    0.328652
C     -1.545110   -0.059631    0.840318
P     -1.712945    1.714646    1.116158
O     -1.364031    2.098085    2.545507
C     -0.650528    2.550663   -0.081335
C      0.002021    3.734273    0.292361
C      0.833799    4.401858   -0.606714
C      1.022782    3.893813   -1.890274
C      0.382376    2.717866   -2.275766
C     -0.449090    2.048346   -1.376616
C     -3.424017    2.190993    0.757538
C     -3.859435    2.586007   -0.515224
C     -5.198244    2.917961   -0.735867
C     -6.116153    2.861077    0.310903
C     -5.697889    2.476179    1.581984
C     -4.361192    2.144783    1.803663
C      2.977520   -0.055794    2.152069
C      4.314217   -0.197811    1.762513
H      6.019807   -2.726749   -0.119577
H      7.338208   -2.042980   -1.083960
H      5.681504   -1.962126   -1.676621
H      6.339892    1.585141   -0.548505
H      7.527412    0.539768   -1.343973
H      5.866138    0.588531   -1.928820
H      6.981537   -1.307409    1.822529
H      7.122345    0.453206    1.639666
H      8.175514   -0.621145    0.720316
H      3.828058   -0.536063   -1.586494
H      1.504649   -0.277204   -0.899660
H      0.725885   -2.572914    1.241924
H     -1.095438   -3.896166    0.340993
H     -3.223334   -2.502271   -2.523632
H     -4.402792   -1.423958   -1.769158
H     -4.890011   -3.042054   -2.265263
H     -5.724509   -3.501967    0.158658
H     -4.614132   -3.275902    1.519443
H     -5.221509   -1.878917    0.623725
H     -4.250999   -5.057921   -1.040434
H     -2.547742   -4.700023   -1.327645
H     -3.129416   -5.019553    0.319326
H     -3.545204   -0.355121    0.096059
H     -0.132467    4.129399    1.298401
H      1.339196    5.314517   -0.301394
H      1.675095    4.412710   -2.587842
H      0.536032    2.320288   -3.275666
H     -0.935654    1.128777   -1.692798
H     -3.167541    2.645015   -1.349876
H     -5.524646    3.226942   -1.725965
H     -7.156500    3.124102    0.137682
H     -6.409456    2.438773    2.402931
H     -4.038685    1.851228    2.802196
H      2.732332    0.099797    3.199725
H      5.066614   -0.151091    2.544695
