69

C      6.318407   -0.168151    0.192014
C      4.905758   -0.040623    0.818774
C      5.028503    0.143617    2.354029
C      4.142107   -1.345268    0.551345
C      4.654044   -2.572911    1.041699
C      3.997522   -3.782458    0.828623
C      2.810566   -3.795493    0.118592
C      2.289873   -2.598704   -0.374849
C      2.936655   -1.355213   -0.173929
N      2.377702   -0.136402   -0.696922
C      1.156657   -0.184869   -1.447506
C      1.185306   -0.341821   -2.832902
C     -0.019260   -0.381436   -3.506162
N     -1.222675   -0.277185   -2.902328
C     -1.250207   -0.120357   -1.554435
N     -2.505508   -0.003011   -0.865536
C     -2.951827    1.289798   -0.424756
C     -2.281377    2.468371   -0.831292
C     -2.673436    3.733445   -0.393298
C     -3.754145    3.854965    0.462054
C     -4.445198    2.712713    0.859717
C     -4.071128    1.419428    0.417483
C     -4.882074    0.193617    0.862362
C     -6.361221    0.411862    0.444806
C     -4.785223    0.082358    2.404402
C     -4.400884   -1.131851    0.253258
C     -5.095698   -2.333213    0.541113
C     -4.696428   -3.558810    0.013547
C     -3.589840   -3.614470   -0.814849
C     -2.885559   -2.444986   -1.103118
C     -3.265929   -1.187423   -0.577722
C     -0.076426   -0.073950   -0.800060
C      3.025768    1.130204   -0.479509
C      2.466034    2.330738   -0.980014
C      3.073768    3.571659   -0.786056
C      4.263005    3.647077   -0.083779
C      4.834695    2.481757    0.420865
C      4.233598    1.211106    0.237201
H      6.939114    0.715030    0.378533
H      6.255431   -0.299571   -0.895623
H      6.877043   -1.021412    0.591945
H      5.600398    1.038272    2.623257
H      4.038828    0.236120    2.818989
H      5.538339   -0.697374    2.836480
H      5.584526   -2.598840    1.604924
H      4.413842   -4.707173    1.218615
H      2.283900   -4.729927   -0.054287
H      1.354138   -2.660881   -0.924155
H      2.125551   -0.430492   -3.365109
H     -0.053749   -0.502293   -4.585121
H     -1.440257    2.420824   -1.518568
H     -2.133822    4.615657   -0.725760
H     -4.068125    4.833932    0.813471
H     -5.294041    2.845214    1.527059
H     -6.789541    1.322173    0.877780
H     -6.453173    0.493646   -0.645634
H     -7.013536   -0.406811    0.766953
H     -5.150726    0.983367    2.909458
H     -3.746838   -0.072671    2.723579
H     -5.375751   -0.752228    2.798403
H     -5.967551   -2.326062    1.191590
H     -5.251791   -4.462518    0.248409
H     -3.269369   -4.560550   -1.241699
H     -2.029052   -2.534722   -1.766580
H     -0.122222    0.045948    0.277568
H      1.532660    2.323583   -1.536375
H      2.613277    4.471319   -1.184661
H      4.746999    4.606872    0.074589
H      5.769572    2.577458    0.969110
