66

C     -6.096592    0.864295    2.245469
C     -5.824879    0.430436    0.781621
C     -7.157111    0.402381   -0.012243
C     -5.247700   -0.991863    0.801586
C     -6.003457   -2.049460    1.367402
C     -5.525474   -3.356857    1.407897
C     -4.277717   -3.640622    0.882816
C     -3.516580   -2.614202    0.322321
C     -3.977051   -1.276402    0.268751
N     -3.168769   -0.237464   -0.313569
C     -1.868371   -0.558495   -0.827131
C     -1.711328   -0.949042   -2.165445
C     -0.444755   -1.263692   -2.661351
C      0.676246   -1.176591   -1.826910
C      2.003288   -1.530750   -2.388772
O      2.081901   -2.445725   -3.204056
C      3.237959   -0.806818   -1.988848
C      3.223516    0.559424   -1.675188
C      4.408901    1.208170   -1.318706
C      5.606167    0.486876   -1.284336
S      7.125374    1.303182   -0.841251
O      8.142516    0.821921   -1.757940
O      6.846355    2.723697   -0.729832
C      7.535978    0.726321    0.789316
C      6.866396    1.265447    1.892245
C      7.186888    0.817277    3.173279
C      8.173561   -0.155110    3.346800
C      8.848465   -0.678829    2.242408
C      8.535001   -0.236397    0.957440
C      5.636712   -0.867803   -1.627973
C      4.449653   -1.511945   -1.981886
C      0.524317   -0.808321   -0.484325
C     -0.743540   -0.494157    0.010437
C     -3.641619    1.120245   -0.379580
C     -2.851415    2.139361   -0.964058
C     -3.283209    3.464112   -1.039348
C     -4.522254    3.808202   -0.529886
C     -5.320760    2.825230    0.049371
C     -4.902458    1.473415    0.134988
H     -6.549563    1.859725    2.308671
H     -5.166117    0.891146    2.826581
H     -6.784023    0.185137    2.761461
H     -6.988110    0.097406   -1.052740
H     -7.885227   -0.294010    0.417719
H     -7.650772    1.380013   -0.034873
H     -6.988961   -1.861730    1.788400
H     -6.128679   -4.146778    1.846855
H     -3.890355   -4.655499    0.903876
H     -2.544107   -2.887251   -0.079104
H     -2.580934   -1.013018   -2.815384
H     -0.334020   -1.577614   -3.697534
H      2.303892    1.137774   -1.726730
H      4.389878    2.271218   -1.085671
H      6.107964    2.034458    1.764774
H      6.674774    1.230402    4.039207
H      8.424775   -0.499328    4.347639
H      9.624371   -1.427437    2.385717
H      9.074003   -0.641174    0.103620
H      6.572676   -1.422503   -1.637204
H      4.469495   -2.564604   -2.261034
H      1.374383   -0.779672    0.191889
H     -0.866705   -0.207673    1.052513
H     -1.872556    1.917126   -1.379949
H     -2.649188    4.218376   -1.496964
H     -4.871290    4.835843   -0.582230
H     -6.289759    3.130222    0.438984
