75

C     -1.029760    6.199182    0.428566
C      0.025660    5.266271   -0.207195
C      1.376935    5.575698    0.472802
C      0.114784    5.631574   -1.704669
C     -0.297332    3.769315   -0.058538
C      0.577978    2.801982   -0.586378
C      0.317601    1.431887   -0.469838
C     -0.834265    0.988070    0.183721
N     -1.098724   -0.410904    0.312008
C     -0.161504   -1.406284    0.611805
C      1.251698   -1.187202    0.962655
C      1.543743   -0.449244    2.120408
C      2.862208   -0.192546    2.487517
C      3.920581   -0.673970    1.711509
C      5.247329   -0.409677    2.074379
C      6.307753   -0.889270    1.304727
C      6.067596   -1.647097    0.153253
C      7.126926   -2.135071   -0.626080
C      6.877542   -2.890865   -1.769970
C      5.565646   -3.168182   -2.148968
C      4.486732   -2.692244   -1.389320
C      3.167581   -2.965485   -1.757882
C      2.101814   -2.484426   -0.993876
C      2.308799   -1.711366    0.169775
C      3.648498   -1.438097    0.550352
C      4.732985   -1.925294   -0.228194
N     -0.728604   -2.595796    0.638858
C     -2.055072   -2.400936    0.367823
C     -2.980223   -3.523706    0.311241
C     -2.848281   -4.559734    1.246875
C     -3.712371   -5.656997    1.223491
C     -4.712612   -5.734236    0.256922
C     -4.843102   -4.720333   -0.690261
C     -3.977182   -3.623144   -0.667538
C     -2.339256   -1.053211    0.186282
C     -3.608932   -0.403026   -0.149853
C     -4.691171   -0.473886    0.737433
C     -5.907683    0.132244    0.418406
C     -6.053342    0.810228   -0.790637
C     -4.985695    0.879122   -1.684058
C     -3.769095    0.271393   -1.367856
C     -1.716976    1.931732    0.713905
C     -1.449398    3.301932    0.592505
H     -2.016374    6.063910   -0.029770
H     -1.126570    6.023647    1.506340
H     -0.755797    7.252955    0.297414
H      1.357536    5.297857    1.533348
H      2.208825    5.036212    0.006899
H      1.614431    6.644257    0.412141
H     -0.821062    5.394916   -2.224757
H      0.309910    6.701922   -1.839497
H      0.920144    5.092711   -2.215703
H      1.484778    3.102994   -1.107934
H      1.017030    0.740885   -0.933579
H      0.739483   -0.066584    2.745652
H      3.053086    0.388211    3.387233
H      5.470059    0.174260    2.964924
H      7.325731   -0.665981    1.616090
H      8.157746   -1.930615   -0.345495
H      7.705872   -3.265645   -2.365425
H      5.390161   -3.761755   -3.043473
H      2.950455   -3.561667   -2.641359
H      1.092580   -2.737215   -1.316212
H     -2.062925   -4.513783    1.999304
H     -3.598273   -6.451017    1.956497
H     -5.383862   -6.588620    0.235874
H     -5.614716   -4.784168   -1.452960
H     -4.086059   -2.857878   -1.431140
H     -4.593761   -1.006040    1.681496
H     -6.741988    0.070755    1.112365
H     -7.001023    1.281348   -1.038802
H     -5.099527    1.404431   -2.628801
H     -2.947887    0.328900   -2.078837
H     -2.607405    1.634954    1.261999
H     -2.170407    3.987443    1.030063
