56

O      3.144976    3.520521    1.263633
S      2.991543    2.823709   -0.000596
O      3.144965    3.520046   -1.265089
C      4.148437    1.521262   -0.000358
C      5.509139    1.877617   -0.000548
C      6.483943    0.889757   -0.000347
C      6.094804   -0.441836    0.000062
C      4.733616   -0.778334    0.000245
C      3.709124    0.198307    0.000016
N      2.315113   -0.181281    0.000152
C      1.997980   -1.586590    0.000513
C      1.838765   -2.275694   -1.212054
C      1.523222   -3.634529   -1.208725
C      1.365701   -4.311335    0.001197
C      1.523082   -3.633888    1.210775
C      1.838627   -2.275051    1.213426
C      1.217126    0.758208   -0.000114
C     -0.125474    0.311794   -0.000047
C     -1.221424    1.199284   -0.000319
N     -2.564380    0.683908   -0.000218
C     -3.205705    0.430570   -1.275521
C     -2.524995    0.701407   -2.490265
C     -3.104295    0.472594   -3.742172
C     -4.388769   -0.036980   -3.822462
C     -5.084508   -0.313941   -2.649774
C     -4.508050   -0.086077   -1.383326
S     -5.535018   -0.495666    0.000023
C     -4.508119   -0.085343    1.383206
C     -5.084627   -0.312566    2.649748
C     -4.388962   -0.034931    3.822321
C     -3.104520    0.474692    3.741821
C     -2.525162    0.702848    2.489820
C     -3.205784    0.431288    1.275188
C     -0.994348    2.576606   -0.000669
C      0.310774    3.049672   -0.000742
C      1.386255    2.142407   -0.000466
H      5.802154    2.926295   -0.000857
H      7.537656    1.156131   -0.000497
H      6.845438   -1.228987    0.000229
H      4.498693   -1.840838    0.000567
H      1.957881   -1.750545   -2.156245
H      1.396911   -4.165206   -2.149003
H      1.116549   -5.369892    0.001463
H      1.396668   -4.164075    2.151315
H      1.957632   -1.749408    2.157344
H     -0.365560   -0.749796    0.000214
H     -1.515128    1.103263   -2.491316
H     -2.545878    0.696075   -4.647660
H     -4.850328   -0.218598   -4.789114
H     -6.094113   -0.714175   -2.727910
H     -6.094213   -0.712817    2.728052
H     -4.850559   -0.216064    4.789049
H     -2.546175    0.698723    4.647220
H     -1.515323    1.104774    2.490707
H     -1.831655    3.269996   -0.000879
H      0.496298    4.122690   -0.001012
