40

C      5.831923    0.183106   -1.811701
C      4.724996    0.046483   -0.814984
N      3.485020    0.122397   -1.163928
C      2.533081   -0.018654   -0.157793
C      1.176516    0.054249   -0.479432
C      0.196221   -0.083838    0.515982
N     -1.188841   -0.008029    0.180173
C     -1.964035   -1.192032   -0.049923
C     -1.421109   -2.487159    0.018664
C     -2.214767   -3.615726   -0.213794
C     -3.564523   -3.470928   -0.521633
C     -4.121213   -2.197158   -0.599971
C     -3.326735   -1.069752   -0.367789
O     -3.967604    0.142978   -0.476143
C     -3.223828    1.280706   -0.262593
C     -3.917266    2.489096   -0.385492
C     -3.255463    3.696947   -0.181522
C     -1.902782    3.695058    0.146810
C     -1.210178    2.485573    0.269566
C     -1.857770    1.254764    0.063386
C      0.590510   -0.297135    1.845181
C      1.944566   -0.371049    2.171012
C      2.904343   -0.230532    1.161831
C      4.339635   -0.302254    1.462981
O      4.729387   -0.488027    2.609912
O      5.204134   -0.156330    0.431706
H      6.462156    1.035534   -1.544169
H      6.432903   -0.730227   -1.818756
H      5.423925    0.345595   -2.813230
H      0.877694    0.217938   -1.512217
H     -0.371198   -2.642066    0.250140
H     -1.774063   -4.607999   -0.155337
H     -4.181009   -4.347423   -0.702969
H     -5.173371   -2.077548   -0.843557
H     -4.973769    2.483988   -0.639342
H     -3.793613    4.636354   -0.276777
H     -1.381600    4.635384    0.309269
H     -0.156553    2.526676    0.530449
H     -0.162830   -0.402939    2.623032
H      2.247110   -0.536025    3.202959
