55

C     -4.411379    0.365723    3.556401
C     -3.447993   -0.638779    3.535396
C     -2.834764   -1.000702    2.330973
C     -3.175229   -0.365061    1.124214
C     -4.144274    0.650583    1.170339
C     -4.759488    1.011972    2.373332
O     -4.551722    1.352033    0.058767
C     -3.949805    1.052637   -1.142049
C     -4.374511    1.811556   -2.237528
C     -3.828602    1.583266   -3.497765
C     -2.860421    0.596626   -3.660945
C     -2.438026   -0.163242   -2.564626
C     -2.974602    0.051606   -1.283287
N     -2.575707   -0.703921   -0.132574
C     -1.595288   -1.751838   -0.231148
C     -2.044193   -3.075012   -0.390039
C     -1.126849   -4.110304   -0.486735
C      0.234554   -3.820103   -0.424461
C      0.697695   -2.518308   -0.268189
N      2.021380   -2.301451   -0.216047
C      2.482730   -1.033063   -0.064603
C      3.864751   -0.781309   -0.007766
C      4.784260   -1.852486   -0.107412
C      6.162061   -1.657432   -0.056878
C      6.658290   -0.376561    0.095710
C      5.773774    0.699297    0.196526
C      4.362792    0.537277    0.148912
C      3.437062    1.623436    0.249619
C      3.826879    2.981122    0.407592
C      2.901784    4.023205    0.502904
C      1.549242    3.744585    0.443475
C      1.132155    2.425380    0.289354
C      2.047802    1.350526    0.190466
C      1.574567    0.037164    0.035774
N      0.242545   -0.199892   -0.017642
C     -0.216679   -1.459841   -0.168752
H     -4.886147    0.648267    4.492162
H     -3.166350   -1.141533    4.457306
H     -2.080603   -1.781641    2.358467
H     -5.506889    1.800425    2.383677
H     -5.129957    2.580677   -2.103099
H     -4.155420    2.174373   -4.349001
H     -2.427027    0.416616   -4.641624
H     -1.676727   -0.919081   -2.732770
H     -3.110910   -3.282030   -0.437917
H     -1.464315   -5.136028   -0.610132
H      0.958563   -4.628679   -0.500038
H      4.417975   -2.872304   -0.228175
H      6.836712   -2.505234   -0.136764
H      7.730867   -0.206185    0.137186
H      6.221157    1.682198    0.315039
H      4.875266    3.260695    0.460535
H      3.244331    5.047523    0.623100
H      0.815507    4.542546    0.515802
H      0.059173    2.230707    0.244938
