38

C     -3.558031   -3.292174   -0.500168
C     -2.184813   -3.517403   -0.495456
C     -1.297442   -2.450615   -0.314451
C     -1.766290   -1.138230   -0.123627
C     -3.155014   -0.932233   -0.160949
C     -4.043920   -1.997907   -0.337558
O     -3.733475    0.309587   -0.038355
C     -2.895588    1.398218    0.041561
C     -3.530110    2.644577    0.084616
C     -2.774286    3.808901    0.185811
C     -1.386797    3.724598    0.247751
C     -0.754551    2.476586    0.207548
C     -1.495873    1.287178    0.097946
N     -0.895744   -0.014994    0.071611
C      0.515901   -0.181414    0.245577
C      0.977970   -0.829838    1.393231
C      2.345969   -0.993349    1.583579
C      3.237001   -0.503677    0.625918
C      4.628794   -0.643684    0.768773
C      5.489217   -0.141223   -0.205038
C      4.963486    0.500778   -1.320428
C      3.578645    0.637570   -1.456715
C      2.698262    0.146356   -0.502310
N      1.375921    0.306714   -0.681941
H     -4.247699   -4.119652   -0.643866
H     -1.798186   -4.522975   -0.642254
H     -0.232822   -2.665867   -0.347883
H     -5.114367   -1.812300   -0.357134
H     -4.614107    2.702223    0.039701
H     -3.265181    4.777783    0.216496
H     -0.788642    4.629093    0.325295
H      0.330897    2.456371    0.254402
H      0.275077   -1.194475    2.135809
H      2.705123   -1.496960    2.476797
H      5.047517   -1.144156    1.638773
H      6.564929   -0.250398   -0.093556
H      5.624299    0.896668   -2.087280
H      3.173932    1.140322   -2.332225
