56

O      3.220328    3.729505   -0.503299
S      3.079873    2.518613   -1.291685
O      3.257074    2.536450   -2.732417
C      4.227610    1.371045   -0.658586
C      5.590573    1.688065   -0.801312
C      6.558392    0.817330   -0.320426
C      6.160092   -0.359386    0.297050
C      4.796781   -0.658845    0.430481
C      3.779183    0.202089   -0.045684
N      2.382718   -0.135278    0.107744
C      2.056066   -1.379947    0.755428
C      1.909234   -2.553157   -0.001249
C      1.585296   -3.755632    0.627359
C      1.407077   -3.793951    2.010676
C      1.552009   -2.632457    2.770105
C      1.875795   -1.427201    2.146749
C      1.291420    0.695023   -0.348565
C     -0.054703    0.301772   -0.158145
C     -1.145146    1.082453   -0.590362
N     -2.481375    0.631042   -0.370299
C     -3.108465   -0.297987   -1.264106
C     -2.471782   -0.804583   -2.410811
C     -3.121997   -1.709497   -3.256788
C     -4.420839   -2.122686   -2.973995
C     -5.071553   -1.629290   -1.846206
C     -4.420632   -0.724493   -1.001379
O     -5.149877   -0.289699    0.081498
C     -4.549538    0.602116    0.940445
C     -5.326932    1.012050    2.028435
C     -4.806804    1.907206    2.959503
C     -3.510312    2.389198    2.803094
C     -2.733640    1.978496    1.714286
C     -3.241071    1.079697    0.759566
C     -0.906820    2.296684   -1.233894
C      0.401040    2.716133   -1.437458
C      1.470463    1.916647   -0.995801
H      5.890706    2.614602   -1.288159
H      7.613761    1.054373   -0.426490
H      6.905129   -1.053330    0.679656
H      4.554494   -1.597601    0.924560
H      2.044815   -2.525852   -1.079347
H      1.468704   -4.662100    0.038834
H      1.151454   -4.731741    2.498312
H      1.409391   -2.665711    3.847244
H      1.984869   -0.523344    2.740594
H     -0.300890   -0.634192    0.339957
H     -1.460823   -0.501990   -2.668863
H     -2.610690   -2.088163   -4.138473
H     -4.926508   -2.824744   -3.631672
H     -6.086761   -1.945232   -1.622283
H     -6.337149    0.629901    2.146896
H     -5.410211    2.226226    3.805233
H     -3.098129    3.086471    3.528479
H     -1.725308    2.373938    1.629875
H     -1.738949    2.907861   -1.574659
H      0.592552    3.663097   -1.939644
