71

O      1.366534   -4.189492    1.192579
C      1.237607   -3.025722    0.818059
C     -0.125435   -2.506452    0.545928
C     -0.560374   -1.264622    0.802613
O      0.232179   -0.293153    1.370173
C     -1.957963   -0.886299    0.546092
C     -2.789273   -0.519545    1.612916
C     -4.115848   -0.149459    1.379015
C     -4.629142   -0.139571    0.074930
N     -5.985642    0.233152   -0.163535
C     -6.334546    1.571441   -0.540532
C     -5.383448    2.595736   -0.691966
C     -5.768388    3.889433   -1.060335
C     -7.110827    4.183708   -1.281799
C     -8.069650    3.185027   -1.133064
C     -7.683541    1.892277   -0.764629
O     -8.704844    0.978998   -0.637078
C     -8.371992   -0.306048   -0.274703
C     -9.441884   -1.199556   -0.160446
C     -9.208462   -2.525435    0.195060
C     -7.906533   -2.956518    0.433624
C     -6.837156   -2.061783    0.319021
C     -7.050823   -0.717672   -0.033917
C     -3.796426   -0.504663   -0.991668
C     -2.469645   -0.875380   -0.757953
C      2.440513   -2.185613    0.599971
C      3.543888   -2.378123    1.441089
C      4.708956   -1.631596    1.251981
C      4.787576   -0.695836    0.211067
N      5.975487    0.071043    0.018101
C      6.106833    1.387327    0.569989
C      5.102546    1.995213    1.343778
C      5.272723    3.282556    1.864227
C      6.450113    3.984963    1.622690
C      7.459204    3.399591    0.862389
C      7.288237    2.112212    0.343367
O      8.344400    1.618805   -0.387843
C      8.223781    0.351283   -0.910200
C      9.323683   -0.110304   -1.640425
C      9.297627   -1.378958   -2.213667
C      8.171902   -2.182995   -2.058283
C      7.071964   -1.719914   -1.328332
C      7.079020   -0.444181   -0.737575
C      3.688271   -0.522891   -0.642998
C      2.521675   -1.268838   -0.455385
H     -0.810884   -3.271925    0.193438
H     -0.283048    0.531794    1.422256
H     -2.414770   -0.534580    2.634780
H     -4.756774    0.127736    2.213014
H     -4.327241    2.405711   -0.523936
H     -5.016101    4.666249   -1.172834
H     -7.410454    5.188537   -1.567694
H     -9.119371    3.409383   -1.301725
H    -10.455640   -0.857974   -0.350639
H    -10.039233   -3.220425    0.283937
H     -7.718110   -3.991436    0.708783
H     -5.835376   -2.437277    0.508806
H     -4.187977   -0.502317   -2.006439
H     -1.841510   -1.151142   -1.602235
H      3.496298   -3.108583    2.246159
H      5.559040   -1.778229    1.913980
H      4.172740    1.475430    1.558717
H      4.483559    3.732675    2.461291
H      6.583487    4.984419    2.028111
H      8.381900    3.941368    0.673628
H     10.198832    0.522496   -1.759723
H     10.152323   -1.738994   -2.780091
H      8.145678   -3.174288   -2.504024
H      6.211038   -2.375753   -1.231045
H      3.748333    0.193207   -1.459158
H      1.690384   -1.128230   -1.139685
