91

O      9.043512   -2.824579    0.552349
S      8.806952   -1.682329   -0.311824
O      9.230981   -1.709046   -1.699979
C      9.566260   -0.277887    0.469421
C      9.459960   -0.131118    1.856146
C     10.050094    0.970567    2.474442
C     10.745310    1.910645    1.711281
C     10.858981    1.750944    0.328746
C     10.272165    0.652176   -0.298470
C      7.057648   -1.355103   -0.317866
C      6.547610   -0.408771   -1.212823
C      5.177758   -0.144737   -1.222924
C      4.318182   -0.828646   -0.347384
N      2.909510   -0.556275   -0.359827
C      2.381010    0.469513    0.500755
C      3.224995    1.219027    1.353177
C      2.732516    2.218505    2.196020
C      1.376704    2.499021    2.212098
C      0.521847    1.778519    1.384659
C      1.005963    0.760735    0.522086
C      0.001528   -0.004306   -0.376087
C      0.665924   -1.082390   -1.268629
C     -0.147747   -1.851075   -2.141183
C      0.393196   -2.832963   -2.964435
C      1.757313   -3.068263   -2.933668
C      2.572172   -2.320512   -2.080109
C      2.051754   -1.315484   -1.231812
C     -1.000942   -0.727323    0.558308
C     -0.514741   -1.703158    1.466954
C     -1.367859   -2.385161    2.328092
C     -2.724072   -2.107534    2.300204
C     -3.218693   -1.149384    1.411905
C     -2.376390   -0.439215    0.524786
N     -2.907133    0.544519   -0.382273
C     -4.316828    0.811931   -0.384053
C     -5.171642    0.089827   -1.233235
C     -6.542548    0.348724   -1.237109
C     -7.058632    1.328251   -0.382124
S     -8.808586    1.651717   -0.396095
O     -9.229963    1.608957   -1.784620
O     -9.048958    2.835452    0.409265
C     -9.567814    0.286551    0.451836
C     -9.487503    0.221814    1.846347
C    -10.080855   -0.847047    2.516805
C    -10.753625   -1.836173    1.797166
C    -10.841539   -1.758444    0.405898
C    -10.251476   -0.692937   -0.273253
C     -6.219547    2.064407    0.459546
C     -4.849108    1.801353    0.459205
C     -2.050861    1.265211   -1.287815
C     -2.572862    2.231435   -2.179131
C     -1.759437    2.941071   -3.065977
C     -0.395218    2.705245   -3.088068
C      0.147369    1.761342   -2.222573
C     -0.664796    1.031992   -1.315514
C      4.844508   -1.785309    0.536484
C      6.213784   -2.053514    0.550779
H      8.931473   -0.867595    2.457284
H      9.975604    1.095084    3.552276
H     11.208008    2.766929    2.196873
H     11.410941    2.481492   -0.258382
H     10.373694    0.530279   -1.374677
H      7.202151    0.117481   -1.904065
H      4.770000    0.589124   -1.914524
H      4.296386    1.038944    1.378620
H      3.413073    2.773395    2.836093
H      0.982172    3.274236    2.863021
H     -0.541664    2.012832    1.409465
H     -1.222680   -1.679257   -2.178300
H     -0.249798   -3.408369   -3.624541
H      2.195411   -3.831915   -3.570795
H      3.635544   -2.545498   -2.095261
H      0.549019   -1.934942    1.501611
H     -0.971704   -3.128476    3.014282
H     -3.403261   -2.632755    2.966242
H     -4.290355   -0.970003    1.429697
H     -4.759251   -0.669585   -1.893932
H     -7.193070   -0.207154   -1.908727
H     -8.977022    0.996897    2.413228
H    -10.026764   -0.907392    3.601270
H    -11.219276   -2.666443    2.323188
H    -11.376540   -2.526560   -0.147615
H    -10.333749   -0.634467   -1.356262
H     -6.616543    2.840288    1.110432
H     -4.186844    2.367493    1.110497
H     -3.636318    2.455268   -2.202691
H     -2.198708    3.675608   -3.735717
H      0.246693    3.251048   -3.773852
H      1.222421    1.588739   -2.253296
H      4.178576   -2.321904    1.208757
H      6.606247   -2.803583    1.233900
