74

N     10.789517   -0.001230   -1.420025
C      9.664735   -0.000929   -1.133782
C      8.275458   -0.000570   -0.779849
C      7.296757   -0.000542   -1.778374
C      5.942434   -0.000206   -1.432258
C      5.547171    0.000064   -0.084573
C      4.110438    0.000290    0.281224
C      3.426287   -1.242746    0.454017
C      4.070796   -2.498395    0.288563
C      3.405819   -3.712636    0.453755
C      2.066803   -3.711433    0.791383
C      1.405726   -2.496140    0.962052
C      2.054290   -1.242111    0.802456
C      1.372087    0.000678    0.979459
C     -0.062959    0.000806    1.352609
C     -0.446612    0.000637    2.714380
C     -1.793539    0.000255    3.095937
C     -2.760686    0.000040    2.105545
C     -2.389419    0.000364    0.743127
C     -1.054056    0.000775    0.358018
C     -3.639249   -0.000077   -0.139736
C     -3.699148   -1.188346   -1.101956
C     -3.681599   -2.546685   -0.812132
C     -3.742442   -3.448659   -1.875220
C     -3.819241   -2.990911   -3.200801
C     -3.837133   -1.622177   -3.488103
C     -3.776964   -0.724213   -2.434733
C     -3.777799    0.724994   -2.434388
C     -3.839122    1.623391   -3.487319
C     -3.822902    2.992005   -3.199351
C     -3.746567    3.449206   -1.873555
C     -3.684525    2.546799   -0.810909
C     -3.700453    1.188580   -1.101392
C     -4.759257   -0.000868    0.902577
C     -6.133896   -0.001643    0.704537
C     -6.962049   -0.002264    1.827787
C     -6.416017   -0.002099    3.121829
C     -5.031029   -0.001316    3.316936
C     -4.206342   -0.000700    2.203601
C      2.054650    1.243263    0.802537
C      1.406453    2.497455    0.962236
C      2.067889    3.712563    0.791615
C      3.406909    3.713402    0.453972
C      4.071520    2.498982    0.288639
C      3.426650    1.243516    0.454065
C      6.539105    0.000033    0.909611
C      7.893912   -0.000261    0.565312
H      7.578181   -0.000794   -2.829853
H      5.188838   -0.000192   -2.218528
H      5.124719   -2.548727    0.021023
H      3.937701   -4.649881    0.315933
H      1.530217   -4.646994    0.922066
H      0.349980   -2.543116    1.225007
H      0.321371    0.000669    3.486616
H     -2.061160   -0.000001    4.147222
H     -0.783607    0.000876   -0.695075
H     -3.622435   -2.900053    0.212736
H     -3.730134   -4.517755   -1.676077
H     -3.865074   -3.711598   -4.014096
H     -3.896192   -1.281952   -4.516395
H     -3.897856    1.283608   -4.515775
H     -3.869717    3.713025   -4.012291
H     -3.735603    4.518221   -1.673898
H     -3.625756    2.899748    0.214127
H     -6.555440   -0.001770   -0.296186
H     -8.042170   -0.002892    1.700176
H     -7.080574   -0.002601    3.982861
H     -4.622661   -0.001229    4.321868
H      0.350735    2.544703    1.225247
H      1.531577    4.648276    0.922334
H      3.939069    4.650508    0.316253
H      5.125435    2.549022    0.021010
H      6.253839    0.000217    1.960589
H      8.644316   -0.000262    1.353786
