59

C      5.966948    1.180444   -0.000167
C      5.274125    1.117165   -1.209593
C      3.884574    0.991022   -1.211523
C      3.179572    0.927370   -0.000016
N      1.750315    0.795221    0.000044
C      0.931718    1.979636   -0.000127
C      1.512979    3.269926   -0.000256
C      0.740740    4.433017   -0.000408
C     -0.639887    4.338932   -0.000471
C     -1.238548    3.082462   -0.000384
C     -0.471014    1.889130   -0.000195
C     -1.174856    0.526124   -0.000029
C     -2.166106    0.434473    1.191619
C     -1.876789    0.459543    2.550763
C     -2.938105    0.360529    3.450880
C     -4.259941    0.239243    2.991102
C     -4.545948    0.214395    1.621857
C     -3.495311    0.312218    0.724153
C     -3.495293    0.311977   -0.724199
C     -4.545899    0.213772   -1.621898
C     -4.259851    0.238104   -2.991144
C     -2.938010    0.359292   -3.450930
C     -1.876727    0.458725   -2.550819
C     -2.166081    0.434126   -1.191674
C     -0.232639   -0.684955    0.000134
C     -0.770715   -1.998649    0.000222
C      0.039346   -3.141751    0.000294
C     -0.507721   -4.436002    0.000305
C      0.319678   -5.559646    0.000374
C      1.701947   -5.402290    0.000436
C      2.256034   -4.121269    0.000435
C      1.433519   -2.981324    0.000348
C      1.969029   -1.681900    0.000301
C      1.160910   -0.519095    0.000162
C      3.884622    0.991859    1.211414
C      5.274175    1.118001    1.209338
H      7.049723    1.278832   -0.000224
H      5.815450    1.165970   -2.150738
H      3.344499    0.941319   -2.153509
H      2.592868    3.395815   -0.000240
H      1.224182    5.406002   -0.000482
H     -1.252989    5.235802   -0.000586
H     -2.326597    3.036054   -0.000449
H     -0.854172    0.553110    2.903329
H     -2.740299    0.377103    4.520181
H     -5.071489    0.163389    3.711261
H     -5.571590    0.119916    1.281632
H     -5.571544    0.119357   -1.281666
H     -5.071368    0.161905   -3.711300
H     -2.740173    0.375441   -4.520232
H     -0.854105    0.552209   -2.903387
H     -1.852127   -2.132161    0.000213
H     -1.586522   -4.575561    0.000247
H     -0.116142   -6.555090    0.000385
H      2.350040   -6.274558    0.000483
H      3.338785   -4.016325    0.000499
H      3.052648   -1.588631    0.000354
H      3.344591    0.942816    2.153459
H      5.815542    1.167458    2.150421
