102

C      7.043190    5.184442    0.694826
C      7.253427    3.825700    0.046498
C      8.372986    3.139916    0.769028
C      7.677766    3.979989   -1.403177
C      6.012502    3.033901    0.075223
C      5.696906    2.199853    1.126006
C      4.524890    1.474048    1.114193
C      3.627494    1.558565    0.048645
N      2.417435    0.801421    0.015159
C      2.470258   -0.619664    0.013991
C      3.729352   -1.191362    0.015056
C      3.817244   -2.541527    0.011030
C      2.729075   -3.363819    0.006026
C      2.878961   -4.830925   -0.002066
C      2.883758   -5.239746   -1.477000
C      1.780872   -5.580524    0.676376
C      4.236236   -5.213016    0.557404
C      1.468078   -2.736991    0.004725
C      1.312978   -1.404696    0.008015
B     -0.018246   -0.656441    0.000600
C     -1.349083   -1.413684   -0.007220
C     -1.502528   -2.752969   -0.022176
C     -2.750036   -3.392997   -0.041521
C     -2.856677   -4.881037   -0.061628
C     -4.302586   -5.324478   -0.061192
C     -2.150125   -5.408807    1.156395
C     -2.210594   -5.445685   -1.286875
C     -3.842454   -2.572876   -0.044886
C     -3.756099   -1.200270   -0.030422
C     -2.504656   -0.629793   -0.011301
N     -2.429602    0.789246   -0.007297
C     -3.638479    1.541861    0.016082
C     -4.563596    1.458758    1.038673
C     -5.740091    2.170277    1.061067
C     -6.041295    3.021604    0.020023
C     -7.297980    3.793048    0.029001
C     -8.078824    3.477313    1.287721
C     -6.975463    5.270172    0.066323
C     -8.192680    3.483102   -1.139147
C     -5.153852    3.136445   -1.015939
C     -3.979523    2.416732   -1.023227
C     -1.221853    1.531473   -0.000858
C     -1.193844    2.924343    0.005904
C     -0.000409    3.631027    0.014076
C      1.182537    2.938545    0.015583
C      1.212869    1.555568    0.009162
C      0.007563    0.910518    0.001500
C      3.980655    2.410430   -0.992701
C      5.148847    3.142056   -0.994510
H      6.365819    5.095109    1.567289
H      6.634385    5.863711   -0.079105
H      8.002860    5.599964    1.069046
H      8.323827    3.255484    1.880337
H      8.491374    2.075795    0.460728
H      9.315393    3.645600    0.455155
H      7.313455    3.082737   -1.952583
H      8.786438    4.041621   -1.477242
H      7.159019    4.864990   -1.814138
H      6.344160    2.090780    1.974560
H      4.295770    0.836297    1.930927
H      4.650105   -0.625711    0.011251
H      4.790871   -3.009533    0.011528
H      3.675500   -4.673617   -2.024011
H      3.082708   -6.319651   -1.527367
H      1.882075   -5.001816   -1.934853
H      1.755229   -5.247938    1.744434
H      2.048457   -6.659173    0.706727
H      0.791075   -5.404212    0.245059
H      4.140424   -6.247238    0.951804
H      4.444181   -4.491105    1.377051
H      4.992413   -5.109106   -0.237178
H      0.680845   -3.394902    0.004218
H     -0.693984   -3.401373   -0.023002
H     -4.298437   -6.433544   -0.026974
H     -4.800578   -5.034517   -1.009499
H     -4.868787   -4.987493    0.829573
H     -2.864329   -5.916565    1.845360
H     -1.595258   -4.605429    1.673444
H     -1.390284   -6.188718    0.862036
H     -2.191798   -4.708340   -2.128845
H     -2.775815   -6.329713   -1.628376
H     -1.195548   -5.798044   -1.027957
H     -4.812509   -3.043306   -0.059703
H     -4.686923   -0.658777   -0.042020
H     -4.321968    0.788214    1.854765
H     -6.383655    2.019504    1.917619
H     -8.291257    2.404430    1.309378
H     -7.424268    3.762331    2.138391
H     -9.027487    4.070408    1.304806
H     -7.757016    5.841167    0.575710
H     -5.963217    5.367330    0.534285
H     -6.934688    5.620613   -0.995174
H     -8.315533    2.403403   -1.285362
H     -7.830639    3.950340   -2.069485
H     -9.201728    3.917356   -0.904023
H     -5.393042    3.803382   -1.829421
H     -3.276592    2.498469   -1.829822
H     -2.092360    3.505165    0.009684
H     -0.009565    4.715369    0.019221
H      2.092165    3.518119    0.026382
H      3.297183    2.482691   -1.816651
H      5.326234    3.770393   -1.849143
