118

C     -8.109624    1.563837   -0.533495
C     -7.079008    1.205487   -1.627685
C     -7.226010    2.249923   -2.754903
C     -7.461190   -0.187406   -2.173042
C     -5.624322    1.187118   -1.128917
C     -4.577022    0.866106   -2.013402
C     -3.243143    0.835216   -1.589821
C     -2.904348    1.118091   -0.260093
C     -1.475428    1.165438    0.152451
C     -0.878075    2.470421    0.210309
C     -1.605095    3.677092    0.010741
C     -1.044461    4.946422    0.165362
C      0.286617    5.090942    0.536961
C      0.896715    6.486675    0.739863
C      2.375498    6.469317    1.190216
C      0.102247    7.249484    1.822655
C      0.831268    7.275065   -0.586087
C      1.016759    3.901715    0.691605
C      0.483605    2.583681    0.497329
C      1.276398    1.386500    0.560770
C      2.695402    1.562825    0.977155
C      3.668756    2.059251    0.091388
C      4.973853    2.302667    0.525136
C      5.324906    2.060318    1.851444
C      4.372147    1.578804    2.746873
C      3.066231    1.335840    2.314553
C      0.709783    0.056341    0.358920
C      1.478029   -1.166742    0.157069
C      2.906621   -1.119461   -0.256956
C      3.943477   -1.454596    0.625042
C      5.277447   -1.482726    0.197466
C      5.625451   -1.186692   -1.129789
C      7.079571   -1.204114   -1.630350
C      8.111915   -1.562118   -0.537440
C      7.225945   -2.248581   -2.757504
C      7.459921    0.189038   -2.176413
C      4.576867   -0.865853   -2.012635
C      3.243618   -0.835763   -1.587091
C      0.880834   -2.471732    0.217742
C      1.608018   -3.679025    0.022750
C      1.046235   -4.947930    0.176948
C     -0.286447   -5.091676    0.542347
C     -0.899248   -6.487198    0.738796
C     -2.385277   -6.469453    1.164084
C     -0.122127   -7.246458    1.836330
C     -0.812524   -7.279292   -0.583760
C     -1.015674   -3.901955    0.695937
C     -0.481374   -2.584339    0.502215
C     -1.274181   -1.387008    0.562402
C     -2.693771   -1.562899    0.976747
C     -3.666038   -2.057407    0.088522
C     -4.972249   -2.300039    0.519360
C     -5.325392   -2.059405    1.845502
C     -4.373673   -1.580273    2.743709
C     -3.066561   -1.337899    2.314179
C     -0.707632   -0.057252    0.358182
C     -3.939953    1.453416    0.623390
C     -5.274521    1.482283    0.197970
H     -7.928840    2.563119   -0.120118
H     -8.088332    0.842830    0.292215
H     -9.129631    1.562543   -0.936240
H     -8.263328    2.310529   -3.104966
H     -6.607566    2.008800   -3.626412
H     -6.931838    3.247847   -2.408659
H     -8.504267   -0.206960   -2.510455
H     -7.346239   -0.957764   -1.401694
H     -6.842989   -0.482731   -3.027756
H     -4.784256    0.634443   -3.055557
H     -2.463084    0.594456   -2.309073
H     -2.657678    3.651492   -0.266226
H     -1.680521    5.812796    0.001451
H      2.500547    5.941732    2.143259
H      3.019878    5.987664    0.445364
H      2.757046    7.487502    1.332694
H      0.094816    6.696569    2.769318
H     -0.940320    7.417220    1.531192
H      0.542270    8.234724    2.015861
H      1.368773    6.749584   -1.384179
H     -0.198840    7.426033   -0.927593
H      1.282758    8.268131   -0.478095
H      2.063266    3.988857    0.969626
H      3.406448    2.259048   -0.945170
H      5.714663    2.676811   -0.175623
H      6.341508    2.246354    2.186547
H      4.642609    1.394414    3.782795
H      2.328224    0.974271    3.027360
H      3.715086   -1.696789    1.661010
H      6.028419   -1.738446    0.938942
H      8.090749   -0.841678    0.288684
H      9.131613   -1.559284   -0.941124
H      7.932651   -2.561646   -0.124092
H      6.932272   -3.246510   -2.410738
H      6.606209   -2.007903   -3.628309
H      8.262944   -2.308892   -3.108699
H      7.345155    0.959781   -1.405459
H      6.841000    0.483398   -3.031076
H      8.502781    0.209618   -2.514115
H      4.782244   -0.633547   -3.055042
H      2.462906   -0.594321   -2.305111
H      2.661241   -3.654594   -0.251129
H      1.682714   -5.814649    0.016785
H     -2.526343   -5.944192    2.116088
H     -3.015978   -5.985212    0.409253
H     -2.770080   -7.487791    1.297792
H     -0.138226   -6.694665    2.783886
H     -0.559877   -8.235211    2.018468
H      0.927482   -7.406579    1.566321
H      0.222933   -7.436263   -0.905482
H     -1.332109   -6.752816   -1.393231
H     -1.270632   -8.270253   -0.482180
H     -2.062704   -3.988580    0.971621
H     -3.401950   -2.255871   -0.947803
H     -5.712456   -2.671807   -0.183589
H     -6.342862   -2.244759    2.178453
H     -4.646183   -1.396970    3.779418
H     -2.329415   -0.978821    3.029442
H     -3.710005    1.693993    1.659108
H     -6.024419    1.736922    0.941001
