96

C      7.162012   -4.705631   -0.223991
C      7.831332   -3.488439   -0.147698
C      7.107247   -2.292512   -0.097311
C      5.698453   -2.280840   -0.121499
C      4.934812   -1.016091   -0.067959
N      5.620783    0.126303   -0.019645
C      4.886952    1.238483    0.030855
C      5.596835    2.534097    0.086694
C      7.002834    2.606790    0.029515
C      7.676213    3.831846    0.082475
C      6.957617    5.017733    0.194921
C      5.568311    4.979777    0.254208
C      4.898227    3.753006    0.200280
N      3.553358    1.261342    0.033182
C      2.960823    0.069990   -0.018280
C      1.482900    0.038201   -0.018651
C      0.722717    1.207853    0.146202
C     -0.687405    1.189856    0.157859
N     -1.324063    2.432286    0.457319
C     -2.163845    2.677149    1.541793
C     -2.538681    1.874214    2.635349
C     -3.448345    2.389359    3.563419
C     -3.950158    3.678544    3.432000
C     -3.532551    4.493723    2.377522
C     -2.615654    3.995191    1.428325
C     -1.957592    4.573976    0.312086
N     -2.056141    5.844545   -0.158651
C     -1.294792    6.119504   -1.234664
C     -0.449795    5.224708   -1.869575
C     -0.352330    3.924329   -1.384443
C     -1.125451    3.611863   -0.254396
C     -1.388709   -0.025093   -0.021069
N     -2.819630   -0.052178   -0.032029
C     -3.631991    0.681509   -0.901222
C     -3.321212    1.540244   -1.975108
C     -4.367850    2.142545   -2.679132
C     -5.691924    1.882118   -2.349653
C     -5.999138    0.998518   -1.312899
C     -4.959755    0.381940   -0.584758
C     -4.942366   -0.561200    0.474059
N     -6.000880   -1.142162    1.096569
C     -5.685212   -1.993282    2.090728
C     -4.401813   -2.284182    2.519175
C     -3.323400   -1.677086    1.884543
C     -3.616408   -0.819225    0.813022
C     -0.635890   -1.209138   -0.192781
N     -1.215290   -2.482690   -0.476970
C     -0.961363   -3.648322    0.251749
C     -0.167445   -3.883527    1.393672
C     -0.153183   -5.168566    1.944659
C     -0.913866   -6.191801    1.391309
C     -1.711867   -5.951420    0.270167
C     -1.741317   -4.664239   -0.306749
C     -2.420713   -4.112046   -1.423429
N     -3.266097   -4.736762   -2.283487
C     -3.716344   -3.973754   -3.298145
C     -3.358008   -2.657011   -3.530916
C     -2.481852   -2.028579   -2.652050
C     -2.045457   -2.776568   -1.549968
C      0.773952   -1.163794   -0.181607
N      3.603529   -1.094857   -0.070254
C      5.050519   -3.530223   -0.198726
C      5.771353   -4.727984   -0.249653
H      7.723309   -5.635522   -0.263859
H      8.917997   -3.465115   -0.127360
H      7.660205   -1.356292   -0.037643
H      7.593637    1.696228   -0.058371
H      8.762105    3.855571    0.036501
H      7.479722    5.970073    0.237675
H      5.001707    5.903248    0.344547
H      3.810573    3.757768    0.251690
H      1.246808    2.149154    0.322659
H     -2.140756    0.874606    2.770747
H     -3.767735    1.770932    4.399303
H     -4.658941    4.063209    4.160830
H     -3.898903    5.513176    2.289847
H     -1.385715    7.139245   -1.601407
H      0.121185    5.535027   -2.738523
H      0.282708    3.194186   -1.874037
H     -2.295986    1.738892   -2.268450
H     -4.141606    2.824558   -3.495665
H     -6.495557    2.359986   -2.904005
H     -7.033920    0.778593   -1.063234
H     -6.540605   -2.461114    2.571959
H     -4.241813   -2.975792    3.339589
H     -2.310009   -1.866637    2.217554
H      0.416532   -3.093392    1.856384
H      0.457101   -5.368129    2.822969
H     -0.893530   -7.185312    1.832389
H     -2.310415   -6.748756   -0.163267
H     -4.406042   -4.478368   -3.970422
H     -3.757604   -2.123357   -4.386933
H     -2.164026   -1.007603   -2.823298
H      1.338818   -2.082489   -0.352877
H      3.963046   -3.582792   -0.221433
H      5.242718   -5.676121   -0.310143
