101

C      0.504747   -1.496663   -0.529500
C      1.243245   -0.390141   -0.376108
C      2.653435   -0.332407   -0.800115
C      3.103704    0.724517   -1.604264
C      4.439516    0.795181   -2.004958
C      5.343485   -0.189488   -1.606602
C      4.911470   -1.247888   -0.799494
N      5.830758   -2.259833   -0.388158
C      6.774338   -2.878067   -1.213402
C      7.047352   -2.746155   -2.592001
C      8.060541   -3.525373   -3.159107
C      8.776239   -4.431608   -2.389394
C      8.479843   -4.590906   -1.033583
C      7.459070   -3.817137   -0.437401
C      6.914614   -3.775601    0.879345
C      7.202629   -4.489888    2.064196
C      6.514982   -4.193425    3.242878
C      5.559059   -3.186391    3.260079
C      5.252511   -2.468774    2.099863
C      5.917885   -2.796461    0.899195
C      3.570033   -1.315054   -0.395944
N      0.685175    0.731322    0.184777
N     -0.629743    0.847742    0.495945
C     -1.281159    2.089016    0.757496
C     -2.617763    2.129624    1.194592
C     -3.271170    3.339583    1.445546
C     -2.599087    4.545515    1.265634
C     -1.269697    4.538074    0.831765
N     -0.569238    5.767447    0.643115
C      0.742884    6.017685    1.055258
C      1.660116    5.236285    1.791309
C      2.920134    5.767751    2.083255
C      3.262188    7.051168    1.678254
C      2.341789    7.837823    0.980640
C      1.061341    7.322975    0.673264
C     -0.081590    7.879615    0.027514
C     -0.340313    9.141589   -0.553442
C     -1.578594    9.396183   -1.147105
C     -2.553124    8.408900   -1.183643
C     -2.320456    7.151653   -0.618026
C     -1.083591    6.905921    0.016157
C     -0.621364    3.318018    0.576012
N     -1.400476   -0.281482    0.491239
C     -0.875393   -1.377492    0.023167
C     -1.712021   -2.616086    0.008592
C     -1.153532   -3.892213    0.153007
C     -1.974279   -5.022191    0.145122
C     -3.356813   -4.886881    0.005609
C     -3.927897   -3.614818   -0.119824
N     -5.343190   -3.471939   -0.252869
C     -5.989171   -2.608607   -1.142803
C     -5.491883   -1.737666   -2.135886
C     -6.396963   -0.997042   -2.901658
C     -7.765195   -1.125712   -2.708841
C     -8.259286   -2.014709   -1.752041
C     -7.365158   -2.776108   -0.966369
C     -7.558926   -3.763890    0.042411
C     -8.714192   -4.330190    0.626268
C     -8.589929   -5.273980    1.648501
C     -7.333496   -5.646751    2.105824
C     -6.175515   -5.101475    1.543634
C     -6.299354   -4.178644    0.482397
C     -3.103834   -2.481681   -0.114124
H      0.857006   -2.399606   -1.002038
H      2.410288    1.495639   -1.935647
H      4.776675    1.624088   -2.623860
H      6.386483   -0.090734   -1.899368
H      6.481254   -2.068851   -3.223772
H      8.284332   -3.423680   -4.218942
H      9.561151   -5.030684   -2.843542
H      9.030507   -5.316160   -0.441815
H      7.965544   -5.264526    2.062613
H      6.742857   -4.742607    4.152961
H      5.047129   -2.945652    4.189024
H      4.524834   -1.663763    2.148006
H      3.221685   -2.148657    0.210019
H      1.327685    1.433206    0.533608
H     -3.165486    1.201518    1.346848
H     -4.303050    3.334443    1.789830
H     -3.113435    5.471890    1.508865
H      1.401021    4.246714    2.155122
H      3.636263    5.172160    2.644253
H      4.242171    7.455797    1.922602
H      2.607411    8.850003    0.687123
H      0.423774    9.913761   -0.545468
H     -1.772464   10.367865   -1.594949
H     -3.507728    8.611598   -1.663328
H     -3.086476    6.385982   -0.689367
H      0.385289    3.326610    0.170222
H     -0.085255   -4.029340    0.296875
H     -1.535617   -6.012459    0.246402
H     -3.966738   -5.786603   -0.038983
H     -4.428230   -1.637382   -2.329526
H     -6.020541   -0.317253   -3.662590
H     -8.455808   -0.543263   -3.312990
H     -9.331819   -2.125033   -1.619708
H     -9.700958   -4.024449    0.289130
H     -9.481413   -5.703939    2.097299
H     -7.246549   -6.363990    2.919013
H     -5.206835   -5.382039    1.945568
H     -3.534644   -1.483367   -0.164689
