99

C      7.183256   -4.864561    0.100743
C      5.792411   -4.857458    0.125747
C      5.097661   -3.643567    0.101892
C      5.772428   -2.407025    0.052922
C      5.035953   -1.125298    0.027798
N      5.746406    0.002894    0.002087
C      5.035646    1.131003   -0.021941
C      5.772106    2.412735   -0.049561
C      7.180487    2.453982   -0.032933
C      7.878704    3.665951   -0.059226
C      7.183211    4.869994   -0.103077
C      5.792235    4.863191   -0.120506
C      5.097329    3.649430   -0.093854
N      3.703129    1.181765   -0.022188
C      3.084921    0.002689    0.004870
C      1.607104    0.002149    0.004802
C      0.871840    1.187569   -0.161625
C     -0.538505    1.199576   -0.174133
N     -1.149065    2.456065   -0.468206
C     -1.964705    2.726785   -1.562460
C     -2.338206    1.936799   -2.665871
C     -3.220301    2.472974   -3.607357
C     -3.697039    3.770858   -3.477512
C     -3.281818    4.571656   -2.410361
C     -2.390578    4.051635   -1.446381
C     -1.741242    4.618413   -0.309418
C     -1.756869    5.904573    0.273166
C     -0.979251    6.166995    1.404461
C     -0.192940    5.167745    1.963963
C     -0.162566    3.885494    1.409195
C     -0.937339    3.628464    0.258770
C     -1.265005   -0.000054    0.001845
N     -2.696357   -0.001421   -0.001374
C     -3.504446    0.739242    0.862491
C     -3.187261    1.586252    1.943851
C     -4.226500    2.200228    2.647170
C     -5.551429    1.962911    2.307627
C     -5.865760    1.093265    1.260448
C     -4.832593    0.463734    0.531833
C     -4.829104   -0.470707   -0.544938
C     -5.857511   -1.102196   -1.278613
C     -5.536425   -1.971168   -2.324341
C     -4.209397   -2.205857   -2.657461
C     -3.174814   -1.589928   -1.949043
C     -3.498855   -0.743618   -0.869169
C     -0.537168   -1.198482    0.180098
N     -1.146477   -2.455951    0.472932
C     -0.929675   -3.628702   -0.252071
C     -0.150027   -3.885480   -1.399300
C     -0.175594   -5.168449   -1.952687
C     -0.961999   -6.168645   -1.395054
C     -1.744558   -5.906506   -0.267140
C     -1.733802   -4.619670    0.314046
C     -2.388890   -4.052956    1.447712
C     -3.283123   -4.573667    2.408534
C     -3.704288   -3.772656    3.473210
C     -3.230419   -2.473756    3.603784
C     -2.345440   -1.936924    2.665337
C     -1.966046   -2.727198    1.564149
C      0.873116   -1.184203    0.170589
N      3.703513   -1.176212    0.030925
C      7.180638   -2.448524    0.028797
C      7.878725   -3.660638    0.052205
H      7.724274   -5.806977    0.119668
H      5.243082   -5.794824    0.164806
H      4.009143   -3.672582    0.123410
H      7.753322    1.528523    0.001138
H      8.965673    3.665320   -0.045790
H      7.724465    5.812234   -0.124244
H      5.242874    5.800681   -0.155774
H      4.008718    3.678808   -0.109496
H      1.413951    2.118989   -0.335740
H     -1.960916    0.928440   -2.795672
H     -3.537160    1.862593   -4.449893
H     -4.384704    4.172440   -4.217133
H     -3.636089    5.595319   -2.331999
H     -2.370678    6.690838   -0.157028
H     -0.995073    7.158743    1.849395
H      0.400398    5.382058    2.850050
H      0.437839    3.110333    1.875933
H     -2.160120    1.765800    2.242852
H     -3.991576    2.870502    3.470643
H     -6.349806    2.447709    2.863123
H     -6.904874    0.899740    1.010725
H     -6.898184   -0.910654   -1.033901
H     -6.331115   -2.457511   -2.883777
H     -3.968982   -2.875542   -3.479826
H     -2.145939   -1.767490   -2.243197
H      0.450585   -3.109628   -1.864635
H      0.421639   -5.382777   -2.836179
H     -0.973953   -7.160972   -1.838819
H     -2.358394   -6.693575    0.161545
H     -3.635036   -5.598072    2.329559
H     -4.394191   -4.174991    4.210335
H     -3.551626   -1.863114    4.444490
H     -1.970235   -0.927865    2.795661
H      1.416269   -2.114777    0.345983
H      7.753386   -1.523162   -0.009203
H      8.965605   -3.660099    0.032790
