62

C     -7.075660   -3.560555   -1.007260
C     -7.346565   -2.386463   -1.705699
C     -6.651146   -1.213643   -1.399561
C     -5.671934   -1.194928   -0.390400
N     -4.952500    0.016928   -0.075036
C     -5.649244    1.281486   -0.042240
C     -5.061798    2.445940   -0.568255
C     -5.736102    3.669509   -0.536108
C     -7.009045    3.749971    0.023241
C     -7.609226    2.608824    0.549850
C     -6.935425    1.385001    0.516887
C     -3.538092   -0.035368    0.206237
C     -2.973027    0.743396    1.228148
C     -1.600474    0.691957    1.500992
C     -0.744570   -0.137780    0.761331
C      0.698428   -0.190979    1.048024
C      1.170384   -0.430173    2.343875
C      2.541981   -0.480955    2.609470
C      3.478741   -0.297211    1.606398
N      4.791251   -0.358190    1.927283
C      5.601111   -0.165872    0.880329
C      5.149904    0.075921   -0.426968
N      3.859377    0.140960   -0.772775
C      3.014663   -0.049817    0.266800
C      1.647147   -0.004134    0.028648
C      6.316249    0.230793   -1.274137
C      6.485124    0.479431   -2.622160
C      7.796973    0.569856   -3.121417
C      8.921085    0.412589   -2.277550
C      8.751542    0.158741   -0.901005
C      9.738131   -0.025332    0.089349
C      9.368826   -0.272655    1.432077
C      8.019174   -0.342811    1.821859
C      7.050736   -0.162859    0.853739
C      7.434686    0.079285   -0.461119
C     -1.309346   -0.915109   -0.260914
C     -2.682061   -0.866051   -0.533428
C     -5.414155   -2.391415    0.302210
C     -6.110315   -3.563969   -0.003360
H     -7.616786   -4.472627   -1.245243
H     -8.096440   -2.380920   -2.492358
H     -6.866030   -0.312478   -1.969196
H     -4.076405    2.402200   -1.026185
H     -5.266546    4.557040   -0.952074
H     -7.533378    4.701693    0.048351
H     -8.601012    2.668542    0.990255
H     -7.415381    0.510005    0.949028
H     -3.603233    1.389959    1.834750
H     -1.204920    1.319547    2.297253
H      0.471493   -0.592954    3.162793
H      2.884180   -0.671699    3.624007
H      1.313935    0.195920   -0.988588
H      5.628023    0.601635   -3.277288
H      7.951141    0.765322   -4.181053
H      9.920402    0.489113   -2.699116
H     10.791769    0.022063   -0.174875
H     10.147090   -0.411748    2.180242
H      7.744895   -0.533109    2.854942
H     -0.684578   -1.578234   -0.856463
H     -3.076255   -1.473896   -1.344820
H     -4.677490   -2.412308    1.101808
H     -5.899304   -4.477387    0.546476
