94

N      2.106185   10.884939    0.254929
C      1.490994    9.900499    0.232079
C      0.710517    8.700252    0.203649
N      1.410864    7.538250    0.185776
C      0.726152    6.362568    0.158050
C      1.420953    5.141561    0.137245
C      2.833983    5.129442    0.143989
C      3.569440    3.943959    0.120178
C      2.919874    2.714157    0.089233
C      3.672713    1.449740    0.057443
C      3.423434    0.435160    0.993742
C      4.125079   -0.775528    0.952728
C      5.102789   -1.012233   -0.025814
N      5.818315   -2.264119   -0.074784
C      7.233973   -2.276744   -0.358155
C      7.796128   -3.256659   -1.195403
C      9.166107   -3.268341   -1.470657
C      9.997866   -2.300838   -0.912652
C      9.461976   -1.321149   -0.080541
C      8.091814   -1.308749    0.193776
C      5.115604   -3.505069    0.154232
C      3.829774   -3.717224   -0.374481
C      3.149666   -4.917716   -0.153174
C      3.743084   -5.926409    0.601736
C      5.015785   -5.737062    1.134492
C      5.696379   -4.536971    0.912479
C      5.358350    0.005715   -0.957675
C      4.654581    1.215569   -0.916436
C      1.513319    2.720351    0.083350
C      0.728144    3.907612    0.108044
C     -0.703443    3.911444    0.102785
C     -1.494606    2.728363    0.080385
C     -2.900809    2.731121    0.074017
C     -3.659490    1.471584    0.054335
C     -3.465570    0.497230    1.044443
C     -4.176199   -0.708463    1.020317
C     -5.105364   -0.981126    0.003911
N     -5.830208   -2.228679   -0.026346
C     -7.225446   -2.246678   -0.398212
C     -8.107937   -1.248035    0.050579
C     -9.458127   -1.266218   -0.309607
C     -9.948957   -2.282990   -1.125012
C     -9.092163   -3.282052   -1.580414
C     -7.742266   -3.264297   -1.219805
C     -5.159046   -3.461395    0.313885
C     -5.797384   -4.441425    1.094439
C     -5.146456   -5.632395    1.426910
C     -3.846769   -5.864586    0.983319
C     -3.196739   -4.907933    0.207375
C     -3.847189   -3.716451   -0.124318
C     -5.302957   -0.002712   -0.983416
C     -4.592280    1.203600   -0.957780
C     -3.545041    3.963642    0.086370
C     -2.803384    5.145017    0.110790
C     -1.390119    5.149243    0.120955
C     -0.688985    6.366431    0.148604
N     -1.367668    7.545786    0.166752
C     -0.661442    8.703986    0.194121
C     -1.435893    9.908335    0.211843
N     -2.046379   10.895870    0.226493
H      3.390457    6.067078    0.169817
H      4.656364    3.995887    0.136270
H      2.683372    0.581766    1.777869
H      3.913305   -1.530122    1.706946
H      7.162719   -4.010860   -1.656455
H      9.580194   -4.031927   -2.123794
H     11.063343   -2.310712   -1.125642
H     10.108867   -0.567648    0.361015
H      7.697695   -0.545992    0.861040
H      3.355852   -2.950452   -0.982640
H      2.159176   -5.064106   -0.575171
H      3.214532   -6.860348    0.774469
H      5.480911   -6.521015    1.726454
H      6.682018   -4.403687    1.352241
H      6.094924   -0.145295   -1.743764
H      4.870497    1.970015   -1.670413
H      1.026967    1.748312    0.041776
H     -1.014848    1.752428    0.055298
H     -2.763743    0.673482    1.857283
H     -4.010297   -1.429946    1.817250
H     -7.750155   -0.455623    0.703648
H    -10.125108   -0.487885    0.051582
H    -10.999084   -2.297270   -1.405003
H     -9.470975   -4.075255   -2.219620
H     -7.087473   -4.044470   -1.600837
H     -6.805671   -4.273124    1.465604
H     -5.655706   -6.375281    2.035297
H     -3.341310   -6.791366    1.241851
H     -2.184642   -5.088214   -0.144751
H     -3.328608   -2.990969   -0.746597
H     -5.999418   -0.182311   -1.799549
H     -4.763002    1.927920   -1.751953
H     -4.631822    4.019991    0.090163
H     -3.354857    6.085818    0.125215
