75

N    -10.673932    1.361282   -0.128118
C     -9.523982    1.204315   -0.110729
C     -8.103555    1.012385   -0.092116
C     -7.454420    0.686594    1.101284
C     -6.069073    0.496943    1.116509
C     -5.310250    0.623297   -0.058032
C     -3.849937    0.418860   -0.045078
C     -3.013320    1.528959   -0.278725
C     -1.606692    1.438574   -0.269454
C     -0.821989    2.664314   -0.506909
C     -0.057630    3.244802    0.517683
C      0.683520    4.406458    0.289004
C      0.666979    5.008045   -0.967174
C     -0.090315    4.450176   -1.994593
C     -0.830597    3.287944   -1.765435
C     -1.011006    0.182782   -0.018872
C      0.448534   -0.021033   -0.004411
C      1.116708   -0.327920    1.189613
C      2.503311   -0.513701    1.209403
C      3.264429   -0.404741    0.034244
N      4.695741   -0.587384    0.056695
C      5.475171   -0.026650    1.135207
C      5.188253    1.251847    1.646502
C      5.941647    1.794693    2.690712
C      6.994019    1.068080    3.242429
C      7.294707   -0.200137    2.751326
C      6.542068   -0.742704    1.706338
C      5.346601   -1.323611   -1.001314
C      4.765743   -2.486803   -1.537427
C      5.395248   -3.199528   -2.561501
C      6.616043   -2.760842   -3.068252
C      7.208497   -1.610799   -2.552498
C      6.579431   -0.898633   -1.527756
C      2.591232   -0.108650   -1.161611
C      1.204851    0.079237   -1.180274
C     -1.847157   -0.927359    0.214720
C     -3.253634   -0.837046    0.205357
C     -4.037662   -2.062861    0.443554
C     -4.798816   -2.646341   -0.581650
C     -5.540401   -3.807445   -0.351518
C     -5.527193   -4.405408    0.906499
C     -4.772030   -3.845104    1.934145
C     -4.031243   -2.683542    1.703597
C     -5.975708    0.958666   -1.248700
C     -7.360879    1.150313   -1.267829
H     -8.017247    0.574638    2.025945
H     -5.580183    0.242524    2.055384
H     -3.471524    2.503658   -0.453297
H     -0.033718    2.788471    1.504955
H      1.274156    4.838783    1.092179
H      1.245386    5.910675   -1.145564
H     -0.103019    4.917169   -2.975816
H     -1.410798    2.861558   -2.580928
H      0.560160   -0.416617    2.120149
H      2.986488   -0.759225    2.152228
H      4.382417    1.843315    1.217668
H      5.707095    2.786388    3.068230
H      7.580043    1.490126    4.054677
H      8.112838   -0.771483    3.181886
H      6.782535   -1.741497    1.349580
H      3.821545   -2.856946   -1.144951
H      4.931522   -4.098468   -2.958981
H      7.105360   -3.314795   -3.865088
H      8.158870   -1.262769   -2.948447
H      7.050717    0.006831   -1.152642
H      3.146988    0.002077   -2.089743
H      0.718501    0.315774   -2.124229
H     -1.386674   -1.900955    0.390261
H     -4.817026   -2.195048   -1.571330
H     -6.127019   -4.244036   -1.155531
H     -6.104290   -5.308928    1.085225
H     -4.759159   -4.311261    2.915842
H     -3.449910   -2.256904    2.518354
H     -5.413766    1.062640   -2.175337
H     -7.851600    1.403982   -2.205524
