53

O      4.469611   -1.878607    1.062674
C      4.931260   -0.916688    0.449686
C      6.400608   -0.732313    0.413573
C      7.192275   -1.645317    1.135205
C      8.581949   -1.532519    1.147512
C      9.193889   -0.506761    0.438187
C      8.413780    0.401111   -0.280577
C      7.011922    0.298868   -0.300727
S      6.138531    1.507935   -1.256236
C      4.437614    1.098591   -0.983099
C      3.483088    1.929914   -1.587421
C      2.113817    1.688649   -1.435573
C      1.654229    0.608013   -0.674083
C      0.213949    0.346626   -0.510549
C     -0.324641   -0.915490   -0.780876
C     -1.691025   -1.186425   -0.632150
C     -2.542473   -0.161360   -0.176304
C     -2.046481    1.120180    0.064308
C     -0.661711    1.364072   -0.092003
C     -3.143972    1.950915    0.434018
C     -3.244015    3.315416    0.786495
C     -4.481200    3.854938    1.145779
C     -5.613196    3.052061    1.171914
C     -5.540355    1.699796    0.824806
C     -4.297739    1.163271    0.425227
N     -3.921389   -0.128795    0.048505
C     -4.806183   -1.240655   -0.085931
C     -4.443453   -2.493773    0.424009
C     -5.312025   -3.579102    0.291638
C     -6.539103   -3.419329   -0.350546
C     -6.902759   -2.173889   -0.860750
C     -6.040655   -1.083336   -0.728780
C      2.615895   -0.219548   -0.073479
C      3.997809    0.016814   -0.222806
H      6.724029   -2.453761    1.695202
H      9.180867   -2.244806    1.709689
H     10.276994   -0.410993    0.441468
H      8.915554    1.196011   -0.830422
H      3.795607    2.780029   -2.192157
H      1.405747    2.349916   -1.932588
H      0.321847   -1.717678   -1.135139
H     -2.068857   -2.171648   -0.888069
H     -0.278416    2.358643    0.122438
H     -2.358845    3.945196    0.789902
H     -4.552463    4.903989    1.421317
H     -6.567809    3.475601    1.475807
H     -6.432701    1.084544    0.887257
H     -3.510643   -2.635381    0.964647
H     -5.034229   -4.548573    0.697834
H     -7.212681   -4.266404   -0.453357
H     -7.855774   -2.053460   -1.369851
H     -6.330207   -0.132968   -1.170648
H      2.284129   -1.061521    0.535025
