  92
 
 C         -7.6071421623        4.9219396011       -1.9155710070
 C         -7.7143509364        4.2937126973       -0.5186619002
 C         -9.1695701825        3.8722266198       -0.2968331921
 C         -7.3529119050        5.3355673550        0.5497702646
 C         -6.7457519408        3.1252570110       -0.4221017898
 C         -5.3754713885        3.3655865225       -0.5917631565
 C         -4.4233793809        2.3696712359       -0.5120036672
 C         -4.8516659954        1.0784248286       -0.2397219406
 C         -6.2299616207        0.8040846590       -0.1016262096
 C         -7.1656272301        1.8235356015       -0.1873002075
 C         -6.3437808307       -0.6163229281        0.0977658002
 C         -7.4261597743       -1.4559896211        0.3111759989
 C         -7.2159294648       -2.8138062492        0.5061820669
 C         -8.3552150320       -3.7946920238        0.7354181010
 C         -9.7292632495       -3.1199008769        0.7010473769
 C         -8.3233863970       -4.8660169746       -0.3640544020
 C         -8.1825118647       -4.4549706220        2.1108266460
 C         -5.8990976928       -3.2935759740        0.5052086860
 C         -4.8040650583       -2.4799681189        0.2964577985
 C         -5.0290020364       -1.1304571770        0.0660182451
 N         -4.1330173819       -0.0977777468       -0.1374541888
 C         -2.7522823023       -0.2199779877       -0.2212346167
 C         -1.9083084848        0.6718367594        0.4625379607
 C         -0.5504445279        0.5499191375        0.3828699262
 C          0.0731059216       -0.4698808619       -0.3911190730
 C          1.4835870469       -0.5941557332       -0.4714537869
 C          2.1221606715       -1.7881396742       -0.9369008279
 C          3.4700976205       -1.9123113955       -0.9791949263
 C          4.3336528435       -0.8541444782       -0.5566546831
 C          5.7185761255       -1.0762317168       -0.6085782016
 N          6.2673086640       -2.1027671307       -1.2819297901
 N          7.5621483714       -1.9995356926       -1.2446186340
 C          7.9071203423       -0.9358471801       -0.5359420031
 C          9.2769522161       -0.5873369090       -0.2621535319
 C          9.6793091772        0.1209915821        0.8750498012
 C         11.0157879134        0.4002942022        1.0803482612
 C         11.9727207850       -0.0201710448        0.1700722870
 C         11.5853094570       -0.7470697352       -0.9471116764
 C         10.2544709031       -1.0328637137       -1.1620155240
 N          6.7597599453       -0.2953963295       -0.1055651971
 C          6.6814492332        0.8563037867        0.6875988732
 C          6.0155445665        0.8168737937        1.9115530036
 C          5.9551254677        1.9538572965        2.6937232379
 C          6.5572976773        3.1282190550        2.2688929682
 C          7.2218986974        3.1648017719        1.0531279029
 C          7.2868121851        2.0357392691        0.2593287331
 C          3.7101343606        0.3649263923       -0.1593048034
 C          2.3587668758        0.4779767857       -0.1111958822
 C         -0.8062781094       -1.3576370826       -1.0734995574
 C         -2.1642130140       -1.2389787770       -0.9903201987
 H         -6.6078154076        5.3038060071       -2.1043692494
 H         -7.8389200185        4.1821350645       -2.6790115024
 H         -8.3099713682        5.7470574486       -2.0094074483
 H         -9.3036310978        3.4319716276        0.6886026233
 H         -9.8136996400        4.7466249314       -0.3640841143
 H         -9.4914690531        3.1609172627       -1.0539018813
 H         -8.0485902283        6.1709447233        0.5078472492
 H         -6.3485418158        5.7230724153        0.4044398595
 H         -7.4067395252        4.8908974490        1.5413917821
 H         -5.0365502267        4.3684689713       -0.8010171952
 H         -3.3805458015        2.5943236116       -0.6748894986
 H         -8.2085266929        1.5787776692       -0.0751482310
 H         -8.4153998111       -1.0302226453        0.3274691414
 H        -10.5035638935       -3.8677776085        0.8595451970
 H         -9.8192487420       -2.3736519300        1.4870643158
 H         -9.9102161059       -2.6490995258       -0.2625157471
 H         -9.1435835425       -5.5674109544       -0.2266460503
 H         -7.3922937162       -5.4253354847       -0.3479236984
 H         -8.4257890661       -4.4025448784       -1.3431556192
 H         -9.0029118219       -5.1438744931        2.3003578264
 H         -7.2513809284       -5.0112000449        2.1711940394
 H         -8.1788489267       -3.6985617107        2.8929671629
 H         -5.7185815096       -4.3428806735        0.6804539988
 H         -3.8051462321       -2.8867266942        0.3298297578
 H         -2.3492070129        1.4276906128        1.0960492437
 H          0.0611594067        1.2186997796        0.9671610662
 H          1.5145826244       -2.6305770497       -1.2277800358
 H          3.9380144711       -2.8233462643       -1.3174256220
 H          8.9541541379        0.4291167180        1.6124922630
 H         11.3141023199        0.9468533527        1.9633165663
 H         13.0151033455        0.2079479932        0.3355910747
 H         12.3287899790       -1.0892973133       -1.6519150625
 H          9.9372935216       -1.5995429763       -2.0233496571
 H          5.5501452514       -0.1031616085        2.2333740184
 H          5.4398088337        1.9215457101        3.6420280458
 H          6.5088154205        4.0132589840        2.8849071271
 H          7.6893898582        4.0788080080        0.7188312193
 H          7.8031760728        2.0543561321       -0.6890261542
 H          4.3198921474        1.2244153694        0.0721245384
 H          1.9337794148        1.4319696867        0.1612449779
 H         -0.3949961399       -2.1187077675       -1.7167619519
 H         -2.8023957666       -1.9001107393       -1.5581758815
