70
 xtb: 6.7.1 (edcfbbe)
C           -0.92823364003478       -0.03312788869011        2.47588609584055
C           -0.13167001543721       -0.00821032864196        1.20990401249637
C            1.25514508618928       -0.00892551909192        1.22176393637119
C            1.98217862058669        0.01216269888854        0.03892266040003
N            3.41678113720770        0.00488511846673        0.08442855181735
C            4.04009676239211       -1.23018864668880        0.10519396711728
C            3.27704699767723       -2.39911732774567        0.27396190081887
C            3.87450734568533       -3.63988114080198        0.33400478811443
C            5.25337319580078       -3.77679953477457        0.23636064164117
C            6.01833050601801       -2.64197542540004        0.05273800973955
C            5.41923630572929       -1.39676715502078       -0.01750506577925
S            6.45828067511061       -0.01082802404631       -0.38300297217874
O            6.71590283121689        0.00966958360414       -1.81165090211240
O            7.63491869275043       -0.02566936807158        0.46127102513219
C            5.43427979584166        1.38645682004112        0.01485327447519
C            6.04635796405564        2.62333344906761        0.11442402170711
C            5.29364701813296        3.76086957695523        0.32926793141279
C            3.91396722265660        3.63533504411365        0.43065416226772
C            3.30380186343130        2.40251444776857        0.34182010597652
C            4.05388423054907        1.23100641653254        0.13746265842868
C            1.34565935370689        0.03769181846185       -1.20200378327403
C            2.14111104900767        0.06458291150528       -2.46905065316043
C           -0.04269379593885        0.03649176337789       -1.21195995110634
C           -0.77341326711347        0.01226233944320       -0.03235329643101
N           -2.19598232499913        0.00665585347009       -0.09059479813556
C           -2.86191092438266       -1.20816468576185       -0.07582396799756
C           -2.12723264144626       -2.39769630892813       -0.04782687522899
C           -2.75923176735942       -3.62366247828846       -0.02895551712711
C           -4.14130890367982       -3.68485168944939       -0.04022354903484
C           -4.86995058314343       -2.50924174118533       -0.07153649347322
C           -4.25991449305242       -1.26207024119389       -0.08921861170367
C           -5.11631909204012       -0.00916644575788       -0.12096624079764
C           -6.00779727624446        0.01066414844271        1.13538001620144
C           -5.98790951611134       -0.03815168138726       -1.39093227418635
C           -4.27244728879481        1.25253119119942       -0.13722533532386
C           -4.89505413896595        2.49328896600803       -0.16562628678708
C           -4.17841534088123        3.67661703379912       -0.17330738756269
C           -2.79589065056755        3.63000774491924       -0.15149326647717
C           -2.15149402990655        2.41066689244996       -0.12529672002981
C           -2.87392299687517        1.21345784164213       -0.11956893655927
H           -1.56135593396790       -0.89545330543319        2.51824856692124
H           -1.58048424754305        0.86320793412379        2.51522734334219
H           -0.27529053170718       -0.00076662631835        3.34313680100771
H            1.78681835275587       -0.00788558504658        2.16158365867664
H            2.21580024367881       -2.32961682916003        0.38617552455471
H            3.27515600618436       -4.51436995931031        0.50978631146675
H            5.73739979325566       -4.73957329106040        0.33406704235560
H            7.10348695396192       -2.67257326486789       -0.02253766326701
H            7.10955504571502        2.66688881337957       -0.00713641214650
H            5.74823002410421        4.73450324785271        0.36363912319871
H            3.28572177130237        4.51340948302332        0.54112310557858
H            2.22163564352590        2.33164273383812        0.40475206340117
H            1.48497280155873        0.02065299625907       -3.33450117703083
H            2.78261319014580        0.89837086335991       -2.51281183838238
H            2.78762505815428       -0.85805297635002       -2.52171485390758
H           -0.57312843015725        0.01384756809480       -2.15291443948023
H           -1.05842738654282       -2.36477950160763       -0.06790773643534
H           -2.18869868188780       -4.53458459791740       -0.06124922902634
H           -4.66792312782458       -4.63261375442827       -0.08775230791682
H           -5.95773785328581       -2.56238357410570       -0.11733252354035
H           -6.64298246074448        0.88369098972535        1.15734095598043
H           -6.64423795037000       -0.87675255145014        1.16364825563927
H           -5.38730708901909        0.00572685686495        2.03184164117865
H           -6.62460267020977       -0.89023008112488       -1.41859684691482
H           -6.62523006713826        0.87010773414980       -1.42829660230904
H           -5.35581173697332       -0.01433647630665       -2.27586318217934
H           -5.96327625311913        2.55590108847081       -0.14331906058154
H           -4.67802011522929        4.62908320161142       -0.13271769116396
H           -2.19858124024061        4.53673701548416       -0.10201626911534
H           -1.06362894561349        2.36945654819789       -0.08694901558004
