  50
 
 C          1.6724810690        5.5308364135       -0.1094238869
 C          0.6825990757        4.4156254517       -0.0637443027
 C         -0.6842082897        4.6357416534       -0.0421679042
 C         -1.6043217943        3.6001513678       -0.0090412287
 C         -1.1243329828        2.2588519861        0.0026338753
 C         -1.7361401822        1.0124629538       -0.0360718836
 C         -3.0865035394        0.5699174289       -0.0801286100
 C         -3.3184570112       -0.7765884478       -0.0538826555
 Br        -5.1469035659       -1.3531427306       -0.1063489770
 C         -2.3043678049       -1.7697033882        0.0176307701
 C         -2.6408834065       -3.2226997267        0.0809139701
 C         -0.9679953546       -1.3397443294        0.0302168062
 C         -0.6827677546        0.0048014118       -0.0167124917
 N          0.5215756636        0.6512738801        0.0195366516
 C          1.7788485742        0.0532901093        0.0275312397
 C          2.7693754711        0.4862138666        0.9108717660
 C          4.0152085042       -0.1081851689        0.9128568272
 C          4.3294750796       -1.1489185187        0.0414902990
 C          5.6889545433       -1.8259859996        0.0121142959
 C          6.3064426014       -1.6480941679       -1.3838161395
 C          5.5093745127       -3.3219072874        0.3132659940
 C          6.6612981931       -1.2438509101        1.0424690873
 C          3.3289564397       -1.5707449170       -0.8378220426
 C          2.0798547028       -0.9914869356       -0.8506215898
 C          0.2893415812        2.0401846221        0.0208448868
 C          1.1832107448        3.0618087500       -0.0403019382
 H          1.1734707653        6.4962137962       -0.1284420039
 H          2.3314522928        5.4945256193        0.7603246204
 H          2.3029077644        5.4445666971       -0.9964838204
 H         -1.0474910336        5.6541802402       -0.0525780621
 H         -2.6646986904        3.7943657237        0.0061516042
 H         -3.8929071225        1.2834662354       -0.1278399965
 H         -1.7344556465       -3.8207767996        0.1248135930
 H         -3.2179360111       -3.5287467471       -0.7942969908
 H         -3.2465140365       -3.4454163635        0.9619726853
 H         -0.1821003551       -2.0758522169        0.0936840408
 H          2.5427696710        1.2682463203        1.6199204783
 H          4.7437697683        0.2508277250        1.6208288635
 H          6.4162558994       -0.5904576393       -1.6155938427
 H          5.6889274537       -2.1034217913       -2.1530189169
 H          7.2896044248       -2.1125555088       -1.4179930589
 H          6.4761033972       -3.8208264822        0.3129186912
 H          5.0516744018       -3.4571453220        1.2913855327
 H          4.8783133308       -3.8039776052       -0.4281980955
 H          7.6132087531       -1.7667911727        0.9760617087
 H          6.2814341167       -1.3679194237        2.0540715793
 H          6.8456649346       -0.1883632152        0.8556053702
 H          3.5284743592       -2.3656588790       -1.5399474919
 H          1.3368483460       -1.3158136671       -1.5637435677
 H          2.2482791650        2.8975661095       -0.0869653880
