70
 xtb: 6.7.1 (edcfbbe)
O           -3.23099895933469        4.05016575968042       -0.89900867453917
C           -2.67661963853765        3.31917085061877       -0.10645047282878
C           -1.61395005059533        2.36504215839445       -0.43252073965057
C           -1.18161657235734        2.22777894946989       -1.69871369191311
C           -0.14479630475738        1.25660347919651       -2.12278400998537
C            0.49901381049176        0.42274048652118       -0.99156622588421
C            0.56409097342328       -1.02044819581218       -1.43132547644505
C            1.55332408369790       -1.40329893439361       -2.33245901286745
C            1.64098373113206       -2.70038433477536       -2.79952891839639
C            0.71725860610492       -3.64707669275407       -2.38797767855088
C           -0.29462948862784       -3.27810290927687       -1.52343548469829
C           -0.37795969924114       -1.97474479456631       -1.04151028391667
N           -1.44877450399594       -1.62462164265188       -0.16913034949419
C           -1.39528069094601       -2.05296030171649        1.15529954119917
C           -0.38359351182442       -2.91957003624757        1.57403603387060
C           -0.29946198447189       -3.35535401845025        2.88497713194581
C           -1.23066336433363       -2.94449811094145        3.81924228754427
C           -2.23087132155593       -2.07189224906898        3.42808112215259
C           -2.30688596768453       -1.61766855647827        2.12170213076028
S           -3.55993974864511       -0.41368737793380        1.79180172961164
C           -3.54221180102841       -0.36355659047434        0.01671058820089
C           -4.57597106878970        0.32717881941625       -0.59312524169375
C           -4.64756263856319        0.41977115576476       -1.97119253228505
C           -3.69518876622699       -0.22551606032293       -2.73635557661176
C           -2.66830458602824       -0.92615159254598       -2.12901550129606
C           -2.54619166276625       -0.98246981535955       -0.74053794225510
P            2.28629112793313        1.07071118733084       -0.78836104843330
O            2.80051946236328        1.69097517041280       -2.01782320715675
C            2.14238578637928        2.27759041722869        0.56457378341695
C            1.73797217742475        3.55411281802709        0.19552362073086
C            1.56843799897533        4.53271294234146        1.15685310630214
C            1.81298601014680        4.23855262550873        2.48861660949697
C            2.23273088840480        2.97015260077428        2.85550757446104
C            2.39555686811748        1.98569868922392        1.89705651007309
C            3.32481288168955       -0.29266256263840       -0.18120094717591
C            2.92534040801621       -1.25360914970712        0.73878734888681
C            3.81141277898469       -2.24083989377111        1.12973243055927
C            5.09633532329086       -2.27272714494542        0.61169736619487
C            5.49815073686454       -1.31404073994507       -0.30354361398986
C            4.61327488905054       -0.32729431732710       -0.69872869771336
C           -0.13270510804733        0.61294069920753        0.34913148052034
C           -1.05676135181073        1.53320046355071        0.61612563430474
H           -2.91497715435357        3.34235920393169        1.00084744408195
H           -1.59866320010463        2.86362442771843       -2.44861726849342
H           -0.64509634219196        0.58126425861449       -2.83960020246464
H            0.63458743088982        1.75974120495786       -2.67198710944717
H            2.25907959339388       -0.66994091511377       -2.67353538573424
H            2.42776113865658       -2.97798196599107       -3.48514437124698
H            0.77637204875736       -4.67087107397244       -2.74887268804211
H           -1.04275444881218       -4.00446279133752       -1.21453765518312
H            0.34650634451482       -3.26810508408714        0.86535545199376
H            0.48460333813125       -4.03487250766444        3.16996636662494
H           -1.19597585435375       -3.29281936223737        4.83953786750813
H           -2.97216264541018       -1.71665815561956        4.13333919344991
H           -5.32166260055379        0.79360331418705        0.01821275941562
H           -5.45059190341531        0.95642039680131       -2.44766571641300
H           -3.75449768265553       -0.22335620412866       -3.82256015772184
H           -1.95231330283455       -1.46709303897445       -2.74613667843861
H            1.57573144654587        3.77154969595945       -0.86742054883273
H            1.25007324747911        5.53118205675037        0.84588955147054
H            1.66736741859572        5.01289014244156        3.22266222238516
H            2.40451486311260        2.75708632514514        3.88359438326483
H            2.70142731549535        1.00277075815743        2.17963980669092
H            1.92939622061547       -1.25411214790437        1.13731072564720
H            3.51234925206682       -2.98282434651700        1.83864076513499
H            5.80268745787777       -3.01974317316000        0.92647075502917
H            6.51004433849384       -1.30192803022535       -0.69946990148779
H            4.90039856399742        0.44694177217700       -1.41343050775470
H            0.25590653806496       -0.02230167435469        1.15068671011025
H           -1.41685272006300        1.65650134927594        1.63756515167323
