68

C     -3.655892   -1.645002   -2.261270
C     -3.786453   -1.648437   -0.733998
C     -3.179425   -2.921059   -0.132391
C     -5.247086   -1.481337   -0.307342
C     -6.327078   -2.314431   -0.564868
C     -7.578364   -1.947834   -0.065754
C     -7.737033   -0.766736    0.676944
C     -6.646466    0.069650    0.934107
C     -5.403755   -0.292562    0.439534
C     -4.121095    0.368824    0.549286
C     -3.770585    1.550117    1.179023
C     -2.433211    1.963533    1.130605
C     -1.443053    1.206646    0.457962
N     -0.068537    1.654002    0.427800
C      0.234185    3.052301    0.233670
C     -0.499416    3.832677   -0.677517
C     -0.203992    5.185314   -0.867239
C      0.829528    5.781185   -0.148548
C      1.568413    5.026724    0.759439
C      1.273542    3.673969    0.948674
C      1.004015    0.696692    0.583967
C      0.902665   -0.350496    1.532417
C      1.925679   -1.291568    1.703486
C      3.060636   -1.184531    0.919152
C      3.178697   -0.148341   -0.030213
C      2.166133    0.787700   -0.204201
C      4.517844   -0.250932   -0.763980
C      5.374674    0.996142   -0.517896
C      4.306332   -0.486434   -2.263800
C      5.135283   -1.482484   -0.096581
C      6.364593   -2.078250   -0.342779
C      6.712997   -3.206885    0.401557
C      5.840614   -3.723469    1.373072
C      4.603197   -3.120283    1.617923
C      4.255685   -1.999997    0.880136
C     -1.820371    0.008900   -0.177282
C     -3.148467   -0.397414   -0.125639
H     -2.605947   -1.693725   -2.572244
H     -4.086023   -0.737316   -2.702172
H     -4.172813   -2.502240   -2.707778
H     -3.680228   -3.819500   -0.511092
H     -2.114262   -3.008900   -0.375850
H     -3.267130   -2.933536    0.960986
H     -6.209524   -3.228047   -1.138236
H     -8.440913   -2.583098   -0.253416
H     -8.720632   -0.500045    1.056468
H     -6.780470    0.979539    1.509017
H     -4.505674    2.148644    1.706076
H     -2.154713    2.882366    1.642793
H     -1.298731    3.383621   -1.262485
H     -0.780332    5.770002   -1.579403
H      1.058785    6.833358   -0.295782
H      2.372780    5.489261    1.325327
H      1.851541    3.108129    1.675695
H      0.018556   -0.424313    2.162627
H      1.821219   -2.079815    2.441154
H      2.267122    1.568320   -0.952017
H      4.901422    1.893745   -0.932502
H      5.531912    1.174270    0.553026
H      6.362903    0.899144   -0.982015
H      3.800454    0.364678   -2.734067
H      3.692680   -1.376168   -2.451175
H      5.260512   -0.631770   -2.783269
H      7.042135   -1.682865   -1.092361
H      7.670514   -3.692584    0.228254
H      6.131869   -4.603524    1.941684
H      3.937245   -3.527666    2.370886
H     -1.088694   -0.585855   -0.715581
