  87
 
 C         10.1897866969       -1.3761158271        0.5309435726
 C          9.2747990574       -0.2477474277        0.0151213623
 C         10.1233381518        0.9235644261       -0.5180213853
 C          8.4291940397       -0.7847646906       -1.1197272207
 C          9.0481039016       -1.2704751711       -2.2641744826
 C          8.3256514907       -1.7382748533       -3.3462778142
 C          6.9402434646       -1.7035539341       -3.3063073339
 C          6.2988111019       -1.2288752993       -2.1843202063
 C          7.0268009407       -0.7888393681       -1.0690758424
 N          6.3541559302       -0.3305479358        0.0492546748
 C          4.9369881815       -0.3782923462        0.0672513560
 C          4.1881502704        0.7979346464        0.0031225126
 C          2.8146156283        0.7469399149        0.0064565575
 C          2.1228694342       -0.4774131500        0.0910272398
 C          0.6802021849       -0.5244557283        0.0928538347
 C         -0.0292686358       -1.6714026677       -0.3346464107
 C         -1.3919807095       -1.6995984095       -0.3629698020
 C         -2.1663682504       -0.5711929616        0.0176051837
 C         -3.5726945090       -0.6808539016       -0.0542238861
 N         -4.1885283311       -1.8716167249       -0.0649876985
 C         -5.4945400196       -1.6243726348        0.0134925559
 C         -6.5511251637       -2.5749162921        0.1213077191
 C         -6.2794251374       -3.9438711272        0.2023683273
 C         -7.3040369947       -4.8500993918        0.3563476636
 C         -8.6127107851       -4.3875579527        0.4402979278
 C         -8.8920330996       -3.0386940327        0.3545596897
 C         -7.8773610286       -2.0885505381        0.1799618300
 C         -8.1410419183       -0.6650433900        0.0306787554
 C         -9.4453250825       -0.1710136622       -0.0473952067
 C         -9.7159685661        1.1660651041       -0.2517580416
 C         -8.6682724169        2.0694131720       -0.4154849552
 C         -7.3718785287        1.6310370160       -0.3332482438
 C         -7.0671974259        0.2761519843       -0.0814518551
 C         -5.7520907523       -0.2264412114        0.0102666794
 N         -4.5089644861        0.3673785549       -0.0264004111
 C         -4.1915835139        1.7227058671       -0.1021765593
 C         -3.3625035609        2.1878425099       -1.1354944245
 C         -3.0245025552        3.5152828852       -1.2092727894
 C         -3.4951352608        4.4212175313       -0.2413315792
 C         -3.1440809126        5.7742564868       -0.3090232405
 N         -2.8539037128        6.8897569520       -0.3642510224
 C         -4.3202504258        3.9527966243        0.7982015711
 C         -4.6647342277        2.6259488188        0.8629017494
 C         -1.4588373421        0.5561735225        0.5050849335
 C         -0.0934041036        0.5708878216        0.5369473803
 C          2.8999054921       -1.6497881176        0.1671831903
 C          4.2733992929       -1.6037558263        0.1467782856
 C          7.0251966728        0.1719520125        1.1492139648
 C          6.2994859971        0.5763979957        2.2792570201
 C          6.9387233591        1.0925766908        3.3840446590
 C          8.3207068414        1.2037346315        3.3921249915
 C          9.0431972033        0.7717973115        2.2952702214
 C          8.4264328568        0.2474757159        1.1668704852
 H         10.8290719593       -1.0189947988        1.3328177640
 H          9.5872614148       -2.1988628730        0.9117114474
 H         10.8224960850       -1.7537400644       -0.2667889934
 H          9.4739121371        1.7166041982       -0.8844139492
 H         10.7541192002        1.3308892175        0.2664590764
 H         10.7622418286        0.5985093679       -1.3336610864
 H         10.1253519283       -1.2837672522       -2.3192982630
 H          8.8385713951       -2.1125187264       -4.2190310999
 H          6.3592826986       -2.0400892867       -4.1516236166
 H          5.2215202331       -1.1867329930       -2.1674207938
 H          4.6992300239        1.7468416146       -0.0727473419
 H          2.2595585591        1.6663941499       -0.0945595363
 H          0.5169252261       -2.5334569287       -0.6860269760
 H         -1.9230398654       -2.5741064269       -0.7053125788
 H         -5.2480777510       -4.2572702021        0.1494266457
 H         -7.0956017920       -5.9076986991        0.4188022406
 H         -9.4228696684       -5.0897907051        0.5741532745
 H         -9.9219444289       -2.7288090950        0.4303172798
 H        -10.2800563432       -0.8477022830        0.0381451600
 H        -10.7388761495        1.5075463187       -0.3045722639
 H         -8.8739196907        3.1111931600       -0.6134380211
 H         -6.5680039641        2.3314267039       -0.4886154301
 H         -3.0025312463        1.4884408765       -1.8756328741
 H         -2.3993157581        3.8768382359       -2.0124342564
 H         -4.6709487842        4.6463291453        1.5485728618
 H         -5.2890640132        2.2614883837        1.6659071169
 H         -2.0010926345        1.3952768259        0.9116349506
 H          0.4018639193        1.4341364641        0.9562843215
 H          2.4129310759       -2.6055760846        0.2780442378
 H          4.8515767646       -2.5140166183        0.2129020016
 H          5.2260989538        0.4745376122        2.2869530795
 H          6.3593209740        1.4011195971        4.2410683581
 H          8.8318233960        1.6100997255        4.2514809651
 H         10.1190128018        0.8446586863        2.3259009840
