  64
 
 O          6.2265508521       -1.9541594266       -1.0261433964
 S          5.7476832200       -1.2188003665        0.1190092270
 O          6.2560518178       -1.6339698176        1.4042533110
 C          5.9056810053        0.5421130280       -0.1104144926
 C          7.0499465491        1.2791900377       -0.2018754544
 C          6.9554031543        2.6610720659       -0.3811978659
 C          5.6900181534        3.2700110437       -0.4576556826
 C          4.5378074613        2.5408493789       -0.3637244239
 C          4.6039451926        1.1307847686       -0.1774322910
 C          3.5480143154        0.2256210907       -0.0312973368
 C          2.1547123324        0.4789313672       -0.0667296963
 C          1.2692048500       -0.5571717240        0.0276730098
 N         -0.1278014356       -0.3266013929        0.0190407669
 C         -0.7227581399        0.3852309138        1.0467734702
 C          0.0450059754        0.8775233686        2.1118444813
 C         -0.5406835299        1.5913800473        3.1330476323
 C         -1.9082892796        1.8292333011        3.1275430817
 C         -2.6798309560        1.3162828354        2.1032732454
 C         -2.1099602817        0.5893811592        1.0672913900
 C         -3.0132040188        0.0166219303        0.0106048141
 C         -4.1103038412       -0.8224128629        0.6444122342
 C         -3.9746007500       -1.9711409692        1.3908376293
 C         -5.1234711333       -2.5819828240        1.8768075168
 C         -6.3758636324       -2.0472109894        1.6165588932
 C         -6.5148690423       -0.8904857733        0.8660022944
 C         -5.3733550523       -0.2762051161        0.3783176893
 C         -5.1992097425        0.9253965391       -0.4237721780
 C         -6.1217608559        1.8190153139       -0.9421531122
 C         -5.6587375471        2.8947155454       -1.6831451435
 C         -4.3022672789        3.0772159316       -1.9041624681
 C         -3.3715927498        2.1850578907       -1.3874386074
 C         -3.8296246333        1.1163957926       -0.6505388580
 C         -2.2678715218       -0.7681529236       -1.0322704610
 C         -2.9824294693       -1.3617062568       -2.0621891028
 C         -2.3400977095       -2.0505526911       -3.0742033787
 C         -0.9541649011       -2.1182984763       -3.0800776538
 C         -0.2250847058       -1.5302076510       -2.0701368730
 C         -0.8705287817       -0.8785787220       -1.0077161859
 C          1.7084457678       -1.9150857499        0.1839941870
 C          3.0759726950       -2.1785987180        0.2458220165
 C          3.9659992185       -1.1531537887        0.1334669573
 H          8.0105401583        0.7911699993       -0.1408842920
 H          7.8475059220        3.2604748329       -0.4646405277
 H          5.6362296450        4.3406520941       -0.5941304915
 H          3.5743815935        3.0240982014       -0.4217156507
 H          1.7933262608        1.4903910281       -0.1783799779
 H          1.1054225330        0.6849041229        2.1369452930
 H          0.0719595457        1.9615586863        3.9404775189
 H         -2.3681525699        2.3958875410        3.9218176154
 H         -3.7484654748        1.4723469946        2.1008375855
 H         -2.9992166053       -2.3880694821        1.5954611603
 H         -5.0393072092       -3.4837853734        2.4644243968
 H         -7.2551347675       -2.5394822507        2.0049697964
 H         -7.4921704838       -0.4774597586        0.6662629218
 H         -7.1790808676        1.6809235364       -0.7731012350
 H         -6.3640143633        3.6012816699       -2.0950513692
 H         -3.9644963104        3.9222944161       -2.4850497364
 H         -2.3148322159        2.3272280969       -1.5612760456
 H         -4.0588896262       -1.2750305787       -2.0656119742
 H         -2.9129387961       -2.5104733054       -3.8640571586
 H         -0.4383188300       -2.6216629752       -3.8830346067
 H          0.8520167590       -1.5624733426       -2.1008509227
 H          0.9767909603       -2.6954333657        0.3107933422
 H          3.4320063718       -3.1897982686        0.3690614050
