  74
 
 C         -7.0480964496        2.1018802316        0.4335258165
 C         -6.1562867460        1.3438197330       -0.5678296045
 C         -6.7074779891        1.5019925601       -1.9974314223
 C         -6.1620246138       -0.1297328707       -0.2053194637
 C         -7.3600078757       -0.8319899701       -0.2184768759
 C         -7.4257452750       -2.1801152454        0.0821200088
 C         -6.2624675736       -2.8601629053        0.3953196360
 C         -5.0588553158       -2.1866179773        0.4190138410
 C         -4.9939763691       -0.8187489590        0.1371317971
 N         -3.7682849235       -0.1674569990        0.1765137226
 C         -2.6165400698       -0.8936997766        0.5762117234
 C         -2.4063283252       -1.1727973244        1.9240536250
 C         -1.2824591038       -1.8805053770        2.3136454937
 C         -0.3824248879       -2.3044918733        1.3555735714
 S          1.0841867525       -3.2254344146        1.8415813308
 O          1.0947123066       -3.3319855164        3.2863578867
 O          1.1002490408       -4.4692441474        1.0977850626
 C          2.4510000920       -2.2082626700        1.3055658472
 C          2.7434506812       -1.0645854709        2.0430447932
 C          3.7724389991       -0.2286119768        1.6607054794
 C          4.4984108533       -0.5681099424        0.5219433134
 C          4.1768827506       -1.7222205788       -0.2424691734
 C          3.1402466074       -2.5508200404        0.1617606754
 C          5.0892600512       -1.7429957891       -1.3502128243
 C          5.2796434362       -2.6129221537       -2.4178664479
 C          6.2903526619       -2.3399182321       -3.3171990708
 C          7.1125846330       -1.2249063804       -3.1572033061
 C          6.9424615364       -0.3464641317       -2.1045451752
 C          5.9153933793       -0.6046117719       -1.2069400535
 N          5.5427984031        0.0913729075       -0.0721251310
 C          6.1637465817        1.2611246016        0.4095959972
 C          6.6431889792        1.3076554528        1.7144279402
 C          7.2594142850        2.4554885146        2.1799287034
 C          7.4074726925        3.5544601232        1.3493228153
 C          6.9310197267        3.5067516125        0.0493654412
 C          6.3059609550        2.3662681976       -0.4227543609
 C         -0.5766441150       -2.0325983376        0.0137361936
 C         -1.6991091956       -1.3262473519       -0.3791540531
 C         -3.6419348296        1.1777647947       -0.1446311116
 C         -2.3877383720        1.7915902557       -0.0759327045
 C         -2.2306966573        3.1247066175       -0.3942142388
 C         -3.3275595995        3.8740538581       -0.7799425373
 C         -4.5721547051        3.2735367060       -0.8288668992
 C         -4.7590674189        1.9336238697       -0.5152781361
 H         -7.0719715139        3.1637435399        0.2050646344
 H         -8.0666299417        1.7246983110        0.4068918770
 H         -6.6615350441        1.9761008582        1.4435408342
 H         -6.0712568227        0.9683159365       -2.7014291860
 H         -6.7380925947        2.5483613479       -2.2877793409
 H         -7.7136791182        1.0994825035       -2.0721315597
 H         -8.2741141533       -0.3166584005       -0.4713424678
 H         -8.3748021005       -2.6945065711        0.0645947776
 H         -6.2870782000       -3.9166405291        0.6191827566
 H         -4.1549656219       -2.7274131029        0.6548992233
 H         -3.1256405967       -0.8376116698        2.6559773498
 H         -1.0888841192       -2.1157640975        3.3486931049
 H          2.1578545879       -0.8607012315        2.9253224556
 H          4.0017073513        0.6618671016        2.2244644862
 H          2.8706740331       -3.4469679280       -0.3740822903
 H          4.6520823364       -3.4837596193       -2.5315532827
 H          6.4560850306       -3.0015247581       -4.1542879504
 H          7.9031634000       -1.0465512980       -3.8709796417
 H          7.5925928858        0.5058283398       -1.9807328809
 H          6.5411793651        0.4415010347        2.3512961892
 H          7.6323618709        2.4878060880        3.1928254567
 H          7.8931489874        4.4466236469        1.7149866354
 H          7.0409681956        4.3630428321       -0.5993290738
 H          5.9184464211        2.3288059535       -1.4298355024
 H          0.1419374858       -2.3867864910       -0.7081866543
 H         -1.8731823232       -1.1046349008       -1.4212384610
 H         -1.5284800502        1.2172865939        0.2346197076
 H         -1.2506448900        3.5751150505       -0.3365191287
 H         -3.2188941783        4.9178543938       -1.0335245014
 H         -5.4213456766        3.8732602139       -1.1192446915
