  112
 
 C          7.6627121802       -2.3687465744       -1.8980662034
 C          6.9668771998       -1.2284579934       -2.6572965192
 C          6.6203924277       -1.6876268667       -4.0822278185
 C          7.9487293764       -0.0570643593       -2.7586661231
 C          5.6832600302       -0.8560498843       -1.9320759036
 C          4.7034377068       -1.8396394134       -1.7376937436
 C          3.5112868403       -1.5904854085       -1.0890176725
 C          3.2890558539       -0.3095338785       -0.6027850297
 C          4.2476986586        0.7077669697       -0.8097113496
 C          5.4356113698        0.4313230361       -1.4657612843
 C          3.6914947667        1.9086893097       -0.2369125583
 C          4.1564293721        3.2083625582       -0.1216670103
 C          3.3768311056        4.1664042914        0.5187921740
 C          3.8222948237        5.6119819066        0.6742347333
 C          5.1927437220        5.8785547261        0.0442391112
 C          2.7954030748        6.5283171094       -0.0090630816
 C          3.9102826807        5.9532170009        2.1698528616
 C          2.1384292759        3.7779531833        1.0478788878
 C          1.6532363012        2.4900190613        0.9476299589
 C          2.4273521275        1.5500516180        0.2822849048
 N          2.1962488921        0.2115594151        0.0531083904
 C          1.0532782991       -0.5074324220        0.4372683556
 C          1.1991615279       -1.6652536374        1.1780115342
 C          0.0676196158       -2.4092460034        1.5821217622
 C          0.1315555603       -3.5797801910        2.4146826982
 O         -0.9002976165       -4.0049594028        3.0263564979
 C          1.4032401260       -4.2960810848        2.5754688007
 C          2.3158425011       -4.4570750475        1.5260504826
 C          3.4904418812       -5.1550770126        1.7181213266
 C          3.7774397290       -5.7244690452        2.9506752766
 C          2.8598005606       -5.6105370155        3.9858149907
 C          1.6830160982       -4.9163537151        3.8001446159
 C         -1.2065141662       -1.9015887118        1.2285205611
 C         -1.3369748440       -0.7514142528        0.4790576665
 N         -2.6142485681       -0.3055329401        0.1079974151
 C         -3.1088409641        0.9701283524        0.2691107384
 C         -2.5298038663        2.0888590875        0.8518151007
 C         -3.2701639222        3.2521744128        0.9039635304
 C         -4.5766729104        3.3444752928        0.4051537962
 C         -5.3118782464        4.6715972318        0.5071780398
 C         -6.7234523996        4.6116682236       -0.0844207253
 C         -5.4311345436        5.0661846564        1.9874698066
 C         -4.5196584471        5.7452022146       -0.2549494920
 C         -5.1559382932        2.2096821081       -0.1540238467
 C         -4.4330637354        1.0301978553       -0.2200413152
 C         -4.7452531627       -0.2923769771       -0.7023461148
 C         -5.8703648585       -0.8436958435       -1.2920509698
 C         -5.8660932139       -2.1835383455       -1.6673677622
 C         -7.0717056397       -2.8567692669       -2.3039137288
 C         -6.6845020888       -3.3695465728       -3.6995656206
 C         -8.2648963804       -1.9085504734       -2.4584281399
 C         -7.5097989197       -4.0350591269       -1.4201614765
 C         -4.7023143374       -2.9352546486       -1.4531138204
 C         -3.5666908603       -2.4104207915       -0.8701645088
 C         -3.5945388840       -1.0799973733       -0.4728501813
 C         -0.2090443633       -0.0313170633        0.0657744259
 H          7.0435691033       -3.2606029141       -1.8602829862
 H          8.5982551856       -2.6267343429       -2.3897951920
 H          7.8820917228       -2.0627754144       -0.8769039332
 H          6.1091859373       -0.8918371106       -4.6205232399
 H          5.9749534255       -2.5615804900       -4.0727586075
 H          7.5295402426       -1.9415874957       -4.6230649549
 H          7.5217751739        0.7646894854       -3.3288900886
 H          8.8507157727       -0.3857160348       -3.2709010237
 H          8.2351977743        0.2999237419       -1.7720105182
 H          4.8735510617       -2.8373749480       -2.1110774956
 H          2.7711339269       -2.3664300855       -0.9709958320
 H          6.1488391717        1.2255116639       -1.6064791942
 H          5.1227590951        3.4521621348       -0.5289311973
 H          5.9648892639        5.2747905471        0.5156646876
 H          5.1795011235        5.6751867797       -1.0241176472
 H          5.4562238428        6.9252213646        0.1826598159
 H          2.7084963064        6.2750085698       -1.0638817713
 H          3.1106222117        7.5663491286        0.0721655742
 H          1.8134042733        6.4350980989        0.4459747649
 H          2.9468565560        5.8485814068        2.6608640895
 H          4.2474262617        6.9795778814        2.2980172488
 H          4.6189094054        5.2926597899        2.6657992471
 H          1.5312634744        4.5059267816        1.5627851125
 H          0.7062966025        2.2186622223        1.3867716816
 H          2.1838136325       -1.9595939424        1.5059948983
 H          2.0772486845       -4.0648914609        0.5486672045
 H          4.1845910549       -5.2686853098        0.8971168002
 H          4.6994318334       -6.2672958926        3.0979902388
 H          3.0645185516       -6.0683727094        4.9435876532
 H          0.9596417155       -4.8251410161        4.5983920150
 H         -2.0763755174       -2.4325993827        1.5845416334
 H         -1.5354382865        2.0478285808        1.2665858052
 H         -2.8141564787        4.1189223261        1.3562432478
 H         -7.3404226943        3.8893953194        0.4453125448
 H         -6.6953601487        4.3541046719       -1.1407262687
 H         -7.1959872133        5.5872895324        0.0102011606
 H         -5.9676465798        4.2972602797        2.5401254812
 H         -5.9775383033        6.0023526454        2.0798997292
 H         -4.4549200257        5.1960306466        2.4461425636
 H         -4.4112201201        5.4618406803       -1.3000457258
 H         -3.5277082527        5.8826398430        0.1659792558
 H         -5.0438567601        6.6972914266       -0.2080230805
 H         -6.1627867848        2.2230980395       -0.5350367005
 H         -6.7331623895       -0.2193954444       -1.4502812298
 H         -5.8802653088       -4.0980142518       -3.6468594811
 H         -7.5418744331       -3.8433868598       -4.1726788717
 H         -6.3561780784       -2.5428798061       -4.3265747075
 H         -8.0184384981       -1.0701958960       -3.1058086831
 H         -8.5943867681       -1.5331490696       -1.4922835612
 H         -9.0959835809       -2.4465442732       -2.9098605150
 H         -6.7262351492       -4.7827233226       -1.3343115980
 H         -7.7558848820       -3.6846131243       -0.4195530483
 H         -8.3901546311       -4.5125325534       -1.8451067766
 H         -4.6784758581       -3.9712653433       -1.7532931308
 H         -2.6860083976       -3.0184446392       -0.7285094557
 H         -0.3071271920        0.8394242910       -0.5612931585
