  102
 
 C          7.4457390315       -0.9098805151       -1.9461384912
 C          7.6851559444       -1.6612745489       -0.6720052422
 C          8.8397543840       -2.4219301620       -0.5302146118
 C          9.0854651568       -3.1530084154        0.6170200490
 C          8.1570626279       -3.1515484264        1.6445655214
 C          7.0028238893       -2.4029415942        1.5180439035
 C          6.7663513930       -1.6375341474        0.3787920298
 C          5.5137988198       -0.8507705094        0.3181170795
 C          4.3159300707       -1.5181951922        0.2992831155
 C          3.0948886577       -0.8174091813        0.2578110539
 N          1.9336386939       -1.4873025722        0.2267392984
 C          0.8152358585       -0.7837694199        0.1921137135
 C         -0.4493810514       -1.4814629241        0.1515418267
 C         -0.4622223237       -2.8802052439        0.1195116463
 C         -1.6439307065       -3.5766682563        0.0659865553
 C         -2.8535068742       -2.8754470798        0.0556871335
 N         -4.0757572072       -3.5779374810       -0.0102766413
 C         -4.4221870579       -4.4859012309        0.9943127713
 C         -3.6697658944       -4.6300058566        2.1540155559
 C         -4.0405672834       -5.5382524318        3.1341183747
 C         -5.1752660899       -6.3089857886        2.9790347522
 C         -5.9566474776       -6.1526421948        1.8431722511
 C         -5.5915189337       -5.2467373670        0.8645071040
 O         -6.4335464758       -5.1249664780       -0.2162092965
 C         -6.0919433207       -4.2087202763       -1.1839963018
 C         -6.9526709176       -4.0914818650       -2.2598379809
 C         -6.6650123554       -3.2144466148       -3.2955460375
 C         -5.5024587374       -2.4719850701       -3.2514367615
 C         -4.6373063758       -2.5847325736       -2.1734804957
 C         -4.9245280976       -3.4360107018       -1.1128174302
 C         -2.8529636003       -1.4912393051        0.1000391542
 C         -1.6613536838       -0.7621563473        0.1368093993
 C         -1.6399596883        0.6946315091        0.1438922524
 C         -2.8100917997        1.4581274917        0.1201794581
 C         -2.7709063987        2.8420992933        0.0884403870
 N         -3.9730355126        3.5797327740        0.0369717726
 C         -4.8342011842        3.4689755761       -1.0593943862
 C         -4.5735714567        2.6252489356       -2.1328862957
 C         -5.4496821114        2.5441203532       -3.2048308156
 C         -6.5963405656        3.3117567538       -3.2301742628
 C         -6.8571703330        4.1813774106       -2.1811652200
 C         -5.9858170569        4.2665351185       -1.1108877773
 O         -6.3007297718        5.1762985660       -0.1280361978
 C         -5.4465670299        5.2676445925        0.9461890508
 C         -5.7847643500        6.1682436451        1.9393059528
 C         -4.9897603749        6.2953593423        3.0693440793
 C         -3.8684658931        5.5015009565        3.2036868181
 C         -3.5248293566        4.5981936559        2.2091978738
 C         -4.2913177192        4.4823789288        1.0555641694
 C         -1.5415531443        3.5079108359        0.0976700789
 C         -0.3801418493        2.7771548018        0.1395901506
 C         -0.4075176157        1.3784153992        0.1600533319
 C          0.8365582549        0.6438985387        0.1928982868
 N          1.9755174982        1.3135330890        0.2223723431
 C          3.1168361809        0.6091645665        0.2519835722
 C          4.3568593416        1.2755140126        0.2848330677
 C          5.5371310380        0.5756645211        0.3112745996
 C          6.8228750206        1.2973799781        0.3978956123
 C          7.6681645945        1.0168416631        1.4691962406
 C          8.8756464069        1.6711135185        1.6157525806
 C          9.2569677010        2.6199388448        0.6820805285
 C          8.4223606191        2.9062976998       -0.3819989764
 C          7.2005382169        2.2619048655       -0.5426163699
 C          6.3476430450        2.6147299096       -1.7262070021
 H          7.9303430080        0.0649299131       -1.9008239081
 H          7.8630577782       -1.4549062061       -2.7903210358
 H          6.3827352424       -0.7561376333       -2.1166271316
 H          9.5549638082       -2.4417918300       -1.3404737986
 H          9.9929028326       -3.7325150676        0.7052163462
 H          8.3304063727       -3.7315293195        2.5392727484
 H          6.2731249458       -2.3927921301        2.3162922761
 H          4.2851891899       -2.5978424794        0.3036339135
 H          0.4869653891       -3.3924591835        0.1243871650
 H         -1.6503430383       -4.6553885773        0.0246984031
 H         -2.7885832584       -4.0241552750        2.2949924375
 H         -3.4329896099       -5.6327965078        4.0210471445
 H         -5.4659024169       -7.0211105417        3.7352319672
 H         -6.8600374720       -6.7241806867        1.6983315202
 H         -7.8414402933       -4.7028450848       -2.2704588178
 H         -7.3440790782       -3.1281971732       -4.1290234053
 H         -5.2524519900       -1.8008370733       -4.0584518650
 H         -3.7236474645       -2.0118836516       -2.1653009058
 H         -3.8068182057       -0.9890083879        0.1046824911
 H         -3.7780182164        0.9835797704        0.1262076826
 H         -3.6722610589        2.0331117276       -2.1391919853
 H         -5.2207614052        1.8776522161       -4.0219225989
 H         -7.2837044151        3.2505475140       -4.0590525591
 H         -7.7329985968        4.8112070994       -2.1768044580
 H         -6.6784378060        6.7585710419        1.8104373470
 H         -5.2593347955        7.0034422739        3.8370069904
 H         -3.2506704854        5.5736369093        4.0856576626
 H         -2.6541174053        3.9740029221        2.3342011115
 H         -1.5173471661        4.5866693725        0.0657220693
 H          0.5834171994        3.2618392476        0.1450483718
 H          4.3506272572        2.3542909468        0.3094144746
 H          7.3621833581        0.2867744557        2.2035743085
 H          9.5155546202        1.4403900546        2.4545930558
 H         10.2011459739        3.1350165511        0.7830464492
 H          8.7215708126        3.6462654976       -1.1112561559
 H          5.6423444238        1.8231489717       -1.9639001275
 H          6.9724208052        2.8056099874       -2.5968516918
 H          5.7810063922        3.5235549600       -1.5216713933
