  66
 
 C         -7.2093801174       -2.1742579900       -1.7857231143
 C         -8.3935479089       -1.4737588788       -1.6779821392
 C         -8.4116955899       -0.2626270258       -1.0025599680
 C         -7.2571826947        0.2315038358       -0.4243644719
 C         -6.0580300777       -0.4893067882       -0.4973728431
 C         -6.0491531128       -1.6841551174       -1.2058060142
 N         -4.9051036480        0.0376919117        0.0932503197
 C         -4.9820504544        1.2784600301        0.7328648716
 C         -3.8977532806        1.8436115339        1.3922939102
 C         -4.0106851596        3.0732226354        2.0232801598
 C         -5.2112949583        3.7532700135        2.0163763562
 C         -6.3123534472        3.1879354180        1.3906470620
 C         -6.2055393063        1.9611781815        0.7619519839
 O         -7.3470962012        1.4525316653        0.1962563237
 C         -3.6895439924       -0.6705348239        0.0525924794
 C         -2.5833981161       -0.1231598425       -0.5952776042
 C         -1.3823164594       -0.8015865535       -0.6163809972
 C         -1.2645413046       -2.0438243347        0.0065486806
 C         -2.3848835552       -2.6037112942        0.6206048541
 C         -3.5831612455       -1.9232319031        0.6547678400
 C         -0.0000018832       -2.8191999081       -0.0026103789
 O          0.0000231413       -4.0354680999       -0.0037367757
 C          1.2645273389       -2.0437904266       -0.0103363623
 C          1.3822987900       -0.8027117411        0.6148958721
 C          2.5833859091       -0.1242546712        0.5950643107
 C          3.6895373962       -0.6704439482       -0.0537914518
 C          3.5831626476       -1.9220244885       -0.6582808980
 C          2.3848758133       -2.6025512474       -0.6254068814
 N          4.9051018636        0.0378570044       -0.0931281524
 C          6.0579882847       -0.4901686642        0.4966464083
 C          6.0490587307       -1.6862458581        1.2030007428
 C          7.2092424529       -2.1773461925        1.7821611490
 C          8.3934134331       -1.4766524205        1.6757306267
 C          8.4116143244       -0.2643593238        1.0023942285
 C          7.2571471219        0.2307642735        0.4249588006
 O          7.3471070604        1.4528492784       -0.1935742138
 C          6.2055947781        1.9624536597       -0.7585008087
 C          6.3124605446        3.1902574387       -1.3851393827
 C          5.2114413699        3.7566551643       -2.0099779845
 C          4.0108157631        3.0766492457       -2.0180669586
 C          3.8978326398        1.8459836343       -1.3891486296
 C          4.9820953579        1.2797039754       -0.7306329362
 H         -7.1737738589       -3.1076928965       -2.3258306472
 H         -9.2996310348       -1.8527081829       -2.1234806429
 H         -9.3146121293        0.3205301132       -0.9172944723
 H         -5.1272027591       -2.2334756656       -1.3142996055
 H         -2.9579320979        1.3150311271        1.4227395062
 H         -3.1498125820        3.4893492846        2.5236176607
 H         -5.3038156509        4.7116288513        2.5022162720
 H         -7.2706097280        3.6821246898        1.3843154298
 H         -2.6788907551        0.8338676960       -1.0868044492
 H         -0.5405469842       -0.3805282424       -1.1459357862
 H         -2.2878966256       -3.5737421235        1.0846147247
 H         -4.4425087147       -2.3488387742        1.1512240055
 H          0.5405242826       -0.3826329100        1.1452200977
 H          2.6788786153        0.8318666339        1.0883512190
 H          4.4425225152       -2.3467216666       -1.1554940123
 H          2.2878896371       -3.5717222008       -1.0912101630
 H          5.1271007586       -2.2357581395        1.3104586551
 H          7.1735995096       -3.1117156909        2.3206480929
 H          9.2994613119       -1.8563638219        2.1206519130
 H          9.3145384488        0.3189423413        0.9182032164
 H          7.2707230147        3.6844226990       -1.3779318751
 H          5.3040042340        4.7158209856       -2.4942148217
 H          3.1499717992        3.4936339417       -2.5177390925
 H          2.9580015454        1.3174735941       -1.4205102387
