  42
 
 C         -4.0979971545       -4.3698017448       -0.0026841251
 C         -2.9727056251       -5.2010755376       -0.0038530549
 C         -1.7061159363       -4.6686366926       -0.0045885768
 C         -1.5297750227       -3.2774615185       -0.0041489909
 N         -0.3042021762       -2.7354072890       -0.0042581337
 C         -0.1680319097       -1.4277621398       -0.0038538171
 C         -1.3156623193       -0.5799829449       -0.0036984797
 N         -2.5255269174       -1.0944723221       -0.0033136515
 C         -2.6834300994       -2.4252321578       -0.0033107843
 C         -3.9613348418       -3.0026637564       -0.0024771845
 C         -1.1528454129        0.8593558888       -0.0035444348
 N         -2.2172327810        1.6310827658       -0.0027458231
 C         -2.0738581504        2.9634942739       -0.0019867388
 C         -3.1904900120        3.8117889602       -0.0006250369
 C         -3.0183101757        5.1749068367        0.0006651223
 C         -1.7357622585        5.7338102834        0.0005142217
 C         -0.6201145027        4.9318970112       -0.0010052674
 C         -0.7589925536        3.5364821284       -0.0022612277
 N          0.3145530359        2.7343758792       -0.0034375261
 C          0.1551591102        1.4293495861       -0.0039618659
 C          1.3202520158        0.5686743208       -0.0041744755
 N          2.5207992032        1.1045866735       -0.0045782470
 C          3.6030178008        0.3142108424       -0.0032394274
 C          4.8959822293        0.8570877592       -0.0034456624
 C          5.9903836274        0.0264099138       -0.0008748828
 C          5.8331258276       -1.3637563325        0.0019220014
 C          4.5808190976       -1.9289758572        0.0017463422
 C          3.4417985345       -1.1109938180       -0.0010176258
 N          2.2103691631       -1.6396450854       -0.0015711682
 C          1.1598792520       -0.8490923033       -0.0032770112
 H         -5.0833453573       -4.8113740764       -0.0019589282
 H         -3.1051730765       -6.2726864761       -0.0041215033
 H         -0.8268041766       -5.2932243103       -0.0054076046
 H         -4.8167714375       -2.3457571374       -0.0016597907
 H         -4.1710501466        3.3625669204       -0.0004931396
 H         -3.8801224911        5.8254271011        0.0018625917
 H         -1.6255063296        6.8079336682        0.0016380817
 H          0.3764993567        5.3442794901       -0.0011504788
 H          4.9972305639        1.9308863545       -0.0054543138
 H          6.9846593152        0.4474950799       -0.0008940945
 H          6.7082133381       -1.9963017074        0.0042109141
 H          4.4396418100       -2.9982581335        0.0037410462
