  63
 
 C         -6.5271512952        0.7195662991        0.0001839479
 C         -5.3653000381       -0.2917690447       -0.0004592722
 C         -5.9127048626       -1.7316565784       -0.0017695387
 C         -4.5405963846       -0.0873160713        1.2572983071
 C         -5.1439496505       -0.2179494980        2.5009162941
 C         -4.4437521330       -0.0426696234        3.6807661442
 C         -3.0976430431        0.2713615985        3.6281372634
 C         -2.4719355853        0.4048692631        2.4060434198
 C         -3.1784887286        0.2288879948        1.2127254213
 N         -2.5207063227        0.3703737640        0.0006650934
 C         -1.1385511637        0.7074285415        0.0013171799
 C         -0.7694080612        2.0728868237        0.0037049345
 C          0.5442158837        2.4405607050        0.0042681746
 C          1.5524529742        1.4515439408        0.0025207617
 N          2.8442496677        1.8121534343        0.0028426855
 C          3.7571803603        0.8583171610        0.0012922976
 C          5.1561156022        1.2246205429        0.0012538558
 C          5.5106096173        2.5773981409        0.0026899406
 C          6.8324406100        2.9583737573        0.0024376631
 C          7.8229693237        1.9824728747        0.0006669972
 C          7.4872783516        0.6455894341       -0.0006850242
 C          6.1513986700        0.2263818912       -0.0004044366
 C          5.7715726787       -1.1806255240       -0.0016966098
 C          6.7150146831       -2.2151638886       -0.0028877048
 C          6.3320840797       -3.5392773650       -0.0039794551
 C          4.9850694350       -3.8842724375       -0.0039833604
 C          4.0344701747       -2.8898968630       -0.0028612352
 C          4.4092639674       -1.5426175483       -0.0017069152
 C          3.3844397710       -0.5222949234       -0.0004495201
 N          2.1159676172       -0.8878949784       -0.0009667048
 C          1.1809338308        0.0744893214        0.0003764314
 C         -0.1850073857       -0.2758797273       -0.0002534407
 C         -3.1779722224        0.2308209588       -1.2119063034
 C         -2.4709931635        0.4089168944       -2.4046550627
 C         -3.0962715852        0.2776667140       -3.6272169449
 C         -4.4423619959       -0.0362632816       -3.6808979257
 C         -5.1429747841       -0.2136725602       -2.5016159697
 C         -4.5400835638       -0.0852294637       -1.2575428021
 H         -7.1517033392        0.5922781902        0.8798308484
 H         -6.1350008176        1.7352959122        0.0013356222
 H         -7.1511387030        0.5940641432       -0.8801183501
 H         -5.0873375580       -2.4418063479       -0.0024488527
 H         -6.5222299686       -1.9132408945       -0.8826997534
 H         -6.5221707028       -1.9148715908        0.8788641218
 H         -6.1932724380       -0.4648265358        2.5576574549
 H         -4.9453931975       -0.1509777467        4.6306504964
 H         -2.5303995225        0.4129552892        4.5365047369
 H         -1.4207526506        0.6489090400        2.3716193421
 H         -1.5527664274        2.8164435715        0.0050280075
 H          0.8449568237        3.4768287316        0.0059647709
 H          4.7153354160        3.3064754807        0.0039527134
 H          7.0990346901        4.0045858986        0.0035264290
 H          8.8637451124        2.2714890482        0.0003801293
 H          8.2829784447       -0.0813354003       -0.0020216936
 H          7.7684190087       -1.9874245045       -0.0028916323
 H          7.0858395279       -4.3129319249       -0.0048193539
 H          4.6891245680       -4.9225612049       -0.0048118872
 H          2.9802005859       -3.1191985519       -0.0028139162
 H         -0.4548638744       -1.3209161265       -0.0019749169
 H         -1.4198221522        0.6528835734       -2.3694383689
 H         -2.5287008229        0.4209223767       -4.5351191617
 H         -4.9436720041       -0.1428416466       -4.6311536442
 H         -6.1922813275       -0.4604314586       -2.5591697285
