  153
 
 C         13.1664076135       -3.9718454630       -2.2776409872
 C         12.7424138310       -2.7474096747       -1.4605388389
 C         13.2183193520       -2.9500656686       -0.0139671429
 C         13.4273893956       -1.5124170421       -2.0648923109
 C         11.2354813514       -2.5343996849       -1.4595199881
 C         10.3511297893       -3.3950587101       -2.1068393953
 C          8.9880395285       -3.1722187027       -2.0501668080
 C          8.4771392164       -2.0773794850       -1.3622105877
 C          9.3310218569       -1.1519499876       -0.7248672578
 C         10.6991237440       -1.4434139356       -0.7876689272
 B          8.6687986289        0.0549161129       -0.0178168348
 C          9.2299444555        1.3289677272        0.6574003671
 C         10.5642282498        1.7654319111        0.6489095913
 C         11.0078094218        2.9091555308        1.2916252380
 C         12.4591761034        3.3663230199        1.2680426362
 C         12.9934304191        3.4145962173        2.7075206560
 C         12.5308439141        4.7669453646        0.6409506394
 C         13.3637609847        2.4350452976        0.4554385410
 C         10.0652162594        3.6687918658        1.9897173924
 C          8.7355324480        3.3029717155        2.0046084512
 C          8.3134984443        2.1576517464        1.3360253659
 O          6.9619443296        1.9362044798        1.3979606118
 C          6.3777380282        0.9199455607        0.7146935069
 C          4.9903826702        0.8598062716        0.7463501970
 C          4.3391577042       -0.1584303143        0.0547558500
 N          2.9145627150       -0.2138136354        0.0633144584
 C          2.2103299180        0.6070149784       -0.7958437420
 C          2.8938780183        1.4481730453       -1.6842733537
 C          2.2046830690        2.2781189012       -2.5414375466
 C          0.8174231872        2.2889386418       -2.5395393090
 C          0.1351881358        1.4517244157       -1.6763918784
 C          0.8096200547        0.6091748642       -0.8058491030
 C         -0.0025850647       -0.2890707983        0.1056528533
 C          0.8809350051       -1.1634901402        0.9706340240
 C          0.2750198181       -2.0549221591        1.8428664878
 C          1.0238175961       -2.8660295888        2.6753677727
 C          2.4081330635       -2.7780251724        2.6448348789
 C          3.0298568783       -1.8990327555        1.7847818391
 C          2.2789734643       -1.0841307657        0.9270004113
 C         -0.8359617110        0.5874934668        1.0184855366
 C         -0.1824565455        1.4190327756        1.9151466266
 C         -0.8854813695        2.2430608121        2.7743925154
 C         -2.2724433598        2.2305084134        2.7449951354
 C         -2.9410338245        1.4111644309        1.8616587466
 C         -2.2360801222        0.5833212192        0.9775705410
 N         -2.9196823727       -0.2274282134        0.0925366882
 C         -4.3430468109       -0.1575913063        0.0537492429
 C         -5.1021405090       -1.1118206436        0.7260131611
 C         -6.4882268443       -1.0291042766        0.6796144990
 C         -7.1474511463       -0.0010314507       -0.0152164948
 C         -6.3448654344        0.9433565553       -0.6768775399
 C         -4.9578458506        0.8717440721       -0.6539426424
 O         -6.8937731998        1.9678783029       -1.3766485578
 C         -8.2450791048        2.1989685304       -1.3677374898
 C         -8.6322244528        3.3512347258       -2.0456544576
 C         -9.9587572668        3.7268205887       -2.0801582726
 C        -10.9332431636        2.9712261750       -1.4225266221
 C        -12.3811648769        3.4383986740       -1.4534173896
 C        -12.8625854120        3.4768992218       -2.9116811341
 C        -12.4672369190        4.8450163384       -0.8416176802
 C        -13.3193627748        2.5198593244       -0.6649097299
 C        -10.5240834186        1.8197175422       -0.7708306805
 C         -9.1939582335        1.3728354432       -0.7320436086
 B         -8.6695914478        0.0882028872       -0.0473747072
 C         -9.3682052566       -1.1244643263        0.6119300898
 C        -10.7423383082       -1.4106194998        0.5957335467
 C        -11.3102397646       -2.5075320322        1.2219157333
 C        -12.8034066995       -2.7996948504        1.1924272747
 C        -13.3413707011       -2.8049981202        2.6313132729
 C        -13.5967746751       -1.7630413557        0.3913082088
 C        -13.0309229170       -4.1759349637        0.5486724457
 C        -10.4582937902       -3.3764150299        1.9091391292
 C         -9.0964337070       -3.1594652154        1.9307618138
 C         -8.5493726770       -2.0577566384        1.2794391130
 O         -7.1818467737       -1.9853269464        1.3470357644
 C         -2.2643539039       -1.0996272743       -0.7545163386
 C         -2.9946894963       -1.9189876946       -1.6256807768
 C         -2.3529225855       -2.8008198760       -2.4679266626
 C         -0.9682788911       -2.8875182066       -2.4668392809
 C         -0.2393895798       -2.0710976368       -1.6219921178
 C         -0.8655945312       -1.1768200327       -0.7672339978
 C          5.0635495767       -1.1144416714       -0.6519991881
 C          6.4510236089       -1.0433164323       -0.6598813791
 C          7.1462493120       -0.0253331853        0.0147799569
 O          7.1084995441       -2.0001213490       -1.3621134014
 H         12.8667240577       -3.8703571715       -3.3184019127
 H         12.7369008428       -4.8841153206       -1.8696399043
 H         14.2500529965       -4.0691604973       -2.2477497343
 H         12.7381385834       -3.8250555059        0.4202704119
 H         12.9794742739       -2.0904403235        0.6059316460
 H         14.2958623175       -3.1001331074        0.0082406130
 H         14.5048907146       -1.6605252376       -2.0981484459
 H         13.0698781184       -1.3431006781       -3.0788652383
 H         13.2253982335       -0.6205722211       -1.4793724368
 H         10.7052572584       -4.2539529868       -2.6520802563
 H          8.2968280409       -3.8479150308       -2.5326198201
 H         11.3664911421       -0.7783452443       -0.2657936232
 H         11.2643615150        1.1701746427        0.0910173859
 H         12.9249506276        2.4304793235        3.1674634871
 H         12.4285131520        4.1146496106        3.3169300997
 H         14.0362386065        3.7255499637        2.7094521137
 H         11.9589542823        5.4892992249        1.2168852172
 H         12.1320118452        4.7458986195       -0.3715458907
 H         13.5640395929        5.1059845282        0.5987992880
 H         13.3780615382        1.4351970359        0.8829659702
 H         13.0380051436        2.3791669198       -0.5808523089
 H         14.3822770155        2.8185422762        0.4671939551
 H         10.3598121817        4.5625030999        2.5177620518
 H          7.9997080174        3.8998653005        2.5234288302
 H          4.4322258518        1.6021853643        1.2947475158
 H          3.9721935452        1.4398047728       -1.6957342091
 H          2.7527763541        2.9186168157       -3.2157663785
 H          0.2740160488        2.9394932585       -3.2069998150
 H         -0.9445894751        1.4466194911       -1.6739838223
 H         -0.8035779254       -2.1081049903        1.8656605012
 H          0.5340460206       -3.5556037494        3.3451551164
 H          3.0066480249       -3.3972360387        3.2957587293
 H          4.1061604426       -1.8313781439        1.7690571321
 H          0.8972264911        1.4161576373        1.9357635217
 H         -0.3583133398        2.8855104384        3.4624119940
 H         -2.8364025575        2.8612651996        3.4153995755
 H         -4.0193930937        1.4006657926        1.8485859523
 H         -4.6278174699       -1.9098076656        1.2754777171
 H         -4.3724598452        1.6129182475       -1.1748175646
 H         -7.8724536528        3.9454862715       -2.5320112414
 H        -10.2262608933        4.6250134747       -2.6149810136
 H        -12.2676571946        4.1640466419       -3.5072324220
 H        -13.9011242385        3.7989447165       -2.9548347729
 H        -12.7884907611        2.4871182634       -3.3582753461
 H        -12.1019781955        4.8319163921        0.1836290294
 H        -11.8746200919        5.5606417053       -1.4047980369
 H        -13.5000000758        5.1879555594       -0.8363097154
 H        -14.3340033985        2.9106203766       -0.7138799612
 H        -13.0281099237        2.4705720359        0.3819303832
 H        -13.3267827970        1.5163520273       -1.0833250672
 H        -11.2497608134        1.2262049571       -0.2446135104
 H        -11.3712709851       -0.7337597869        0.0461962838
 H        -13.1670521229       -1.8389808579        3.1014667116
 H        -12.8566510423       -3.5687921575        3.2332409619
 H        -14.4118047262       -3.0007770598        2.6299270906
 H        -14.6523173874       -2.0281969772        0.4017790449
 H        -13.4960155820       -0.7721602231        0.8274129160
 H        -13.2677999465       -1.7347109515       -0.6450572783
 H        -12.5449419670       -4.9650194708        1.1159076290
 H        -14.0956590807       -4.3960259330        0.5025763465
 H        -12.6310840509       -4.1881745273       -0.4636256786
 H        -10.8508126322       -4.2398204049        2.4238149196
 H         -8.4323158765       -3.8410303447        2.4419620987
 H         -4.0710836750       -1.8529074797       -1.6352079198
 H         -2.9361060336       -3.4233440841       -3.1295192042
 H         -0.4626828751       -3.5792233799       -3.1225299559
 H          0.8394409288       -2.1221610449       -1.6217924810
 H          4.5622264523       -1.9045671576       -1.1886306781
