  69
 
 C          9.0873679069       -3.3153102906        0.3775256396
 C          9.1426954185       -2.0668743225        0.9762316504
 C          8.0799533950       -1.1907270720        0.8620360460
 C          6.9472316400       -1.5565012280        0.1377075157
 C          5.8000999178       -0.6668818730        0.0200009361
 N          4.5321003659       -1.1674870066        0.0247260121
 C          3.7391689740       -0.1321919825       -0.0199237239
 C          2.2940186474       -0.1787050726       -0.0208829638
 C          1.6366817410       -1.4125344168        0.0016232171
 C          0.2585203958       -1.4227905858        0.0093077781
 C         -0.4414616673       -0.2128191045       -0.0073319665
 C         -1.9030475862       -0.1649462309        0.0004149869
 C         -2.5845945133        0.8258456582        0.7083949578
 C         -3.9612990683        0.8716695973        0.7198419361
 C         -4.7092848133       -0.0676282680        0.0063938126
 N         -6.1022593873       -0.0179296106        0.0082085248
 C         -6.7630011507        1.2170569882        0.0498013419
 C         -6.2631021022        2.3112731530       -0.6553772872
 C         -6.9183903174        3.5263754773       -0.6091884805
 C         -8.0819524627        3.6688009214        0.1289173130
 C         -8.5856452413        2.5831109826        0.8263853759
 C         -7.9328807407        1.3661711910        0.7936452684
 C         -6.8504751633       -1.2018388515       -0.0291820988
 C         -6.4280390768       -2.3288960715        0.6749695525
 C         -7.1703727701       -3.4930561337        0.6339631162
 C         -8.3449425990       -3.5512070503       -0.0981029742
 C         -8.7715409655       -2.4325637665       -0.7949559940
 C         -8.0317439418       -1.2663924561       -0.7672657897
 C         -4.0316212757       -1.0571154667       -0.7092012217
 C         -2.6548888770       -1.1064042261       -0.7034824343
 C          0.3251428863        0.9571054389       -0.0370917815
 N          1.6388259403        0.9811655584       -0.0423081975
 O          4.3985876729        1.0354642281       -0.0625081026
 C          5.7153085389        0.7150270414       -0.0499262638
 C          6.6888456164        1.7839914516       -0.1615229527
 C          7.9446069657        1.5663047098       -0.7298228758
 C          8.8467088177        2.6070671326       -0.8341543870
 C          8.5110246921        3.8743043669       -0.3838360626
 C          7.2586060798        4.1013184539        0.1630569698
 C          6.3499121059        3.0666819423        0.2718732394
 C          6.8887196431       -2.8213231006       -0.4426514260
 C          7.9557077359       -3.6918922567       -0.3268769009
 H          9.9218044631       -3.9953192066        0.4671513267
 H         10.0174625311       -1.7763551468        1.5397440508
 H          8.1183213576       -0.2250909306        1.3446033957
 H          2.2203619218       -2.3180663909        0.0213962718
 H         -0.2804097081       -2.3585241232        0.0502539424
 H         -2.0264548979        1.5485096201        1.2848325751
 H         -4.4720640906        1.6336021903        1.2900420825
 H         -5.3621569848        2.1994439818       -1.2408013722
 H         -6.5217567804        4.3657404118       -1.1611952101
 H         -8.5928501609        4.6190878713        0.1599479921
 H         -9.4898840338        2.6860628251        1.4080278497
 H         -8.3223695967        0.5231386058        1.3454458328
 H         -5.5186823854       -2.2820274100        1.2562006264
 H         -6.8335510952       -4.3583122989        1.1857962733
 H         -8.9241671572       -4.4616023332       -0.1246479757
 H         -9.6838292754       -2.4700634255       -1.3718984439
 H         -8.3615359053       -0.3978477689       -1.3183805058
 H         -4.5963618379       -1.7820500771       -1.2768321037
 H         -2.1515969756       -1.8663257329       -1.2829815137
 H         -0.1530030036        1.9274136647       -0.0774217377
 H          8.2013721196        0.5854149700       -1.0996634286
 H          9.8166978334        2.4303367780       -1.2752163070
 H          9.2213937421        4.6835248264       -0.4661820889
 H          6.9891801513        5.0896557400        0.5055199509
 H          5.3714415477        3.2378919017        0.6947489355
 H          5.9981487964       -3.1042841005       -0.9822761755
 H          7.9051940475       -4.6686742907       -0.7856445479
