  94
 
 O         -3.9402402529        2.9642840954        1.8920819954
 C         -2.6601269705        2.6760588202        1.5267011024
 C         -1.6330000601        3.5957148989        1.6905698462
 C         -0.3319126929        3.2696604225        1.3652625667
 C         -0.0127962924        1.9992759386        0.8845346536
 C          1.3692685042        1.6383534871        0.5718775972
 C          1.8469098138        0.3426635545        0.8044832276
 C          3.1452155979        0.0040008633        0.5224380314
 C          4.0561625647        0.9491853910        0.0002853692
 C          5.3889030865        0.5689345420       -0.3149364875
 C          5.6806515805       -0.8634843154       -0.5288906450
 C          6.6295376332       -1.4880769943        0.3400016049
 C          6.8728217510       -0.9567481253        1.6219682963
 C          7.8066544139       -1.5225767494        2.4592918678
 C          8.5461696726       -2.6232298914        2.0469535790
 C          8.3434182351       -3.1441249143        0.7765748533
 C          7.4035366553       -2.5925179838       -0.0656361966
 C          5.0079768981       -1.5349805945       -1.5968223592
 C          4.4919515031       -0.8011460441       -2.6835735462
 C          3.8140373557       -1.4268759095       -3.7044968600
 C          3.6060421976       -2.7995286221       -3.6736889329
 C          4.0785589190       -3.5370422256       -2.5968743152
 C          4.7682639755       -2.9230294491       -1.5751621836
 C          6.4805005297        1.4907635546       -0.4417496401
 C          7.5891259390        1.1679887426       -1.2463129592
 C          8.6606754540        2.0252136988       -1.3550088601
 C          8.6773576418        3.2223513718       -0.6522088137
 C          7.6085711019        3.5442540219        0.1719030243
 C          6.5262947046        2.6982490033        0.2788953753
 C          3.5574250037        2.2447453053       -0.2574556555
 C          2.2547898671        2.5729323587        0.0228427901
 C         -1.0490308457        1.0840444748        0.7144764928
 C         -2.3667637247        1.4086887409        1.0040302802
 C         -3.3991347558        0.4002464521        0.8010646094
 N         -3.2782942724       -0.8486434360        1.1690602037
 C         -4.4436964881       -1.4746193689        0.8391530629
 C         -4.6142707010       -2.8975389368        1.0903614542
 C         -3.8709404404       -3.4952037580        2.1075962663
 C         -4.0053408400       -4.8435257966        2.3744461912
 C         -4.8792335571       -5.6173082011        1.6279405638
 C         -5.6068467061       -5.0352010314        0.6029523754
 C         -5.4750448826       -3.6867495389        0.3298425478
 C         -5.3040146230       -0.5622420620        0.2511500907
 C         -6.6559846204       -0.7103880930       -0.2716406999
 C         -6.9870109239       -0.2496587528       -1.5447206396
 C         -8.2761505095       -0.3897517322       -2.0236389042
 C         -9.2495115105       -0.9898068293       -1.2426759422
 C         -8.9268389682       -1.4557661292        0.0219266932
 C         -7.6409159189       -1.3169912927        0.5070653533
 N         -4.6176336076        0.6320916855        0.2214953951
 C         -5.0704147040        1.8411968147       -0.3275858643
 C         -4.2579412598        2.5365346294       -1.2165861343
 C         -4.6976249190        3.7305541572       -1.7579305206
 C         -5.9469638461        4.2281550827       -1.4276820042
 C         -6.7564081246        3.5311387872       -0.5456329867
 C         -6.3230805137        2.3418561936        0.0090117647
 H         -3.9795449453        3.8564870913        2.2569022373
 H         -1.8611217954        4.5742862349        2.0939608696
 H          0.4492559702        3.9978040182        1.5228568359
 H          1.1861265311       -0.3935803281        1.2372845228
 H          3.4962714080       -0.9962307697        0.7304973323
 H          6.2934046000       -0.1074107622        1.9537936541
 H          7.9656353918       -1.1065343473        3.4437862025
 H          9.2811578717       -3.0628451293        2.7043406618
 H          8.9337987040       -3.9846267005        0.4402692220
 H          7.2912474155       -2.9773996594       -1.0683983249
 H          4.6582780226        0.2658218968       -2.7197089365
 H          3.4403593281       -0.8451309657       -4.5349556272
 H          3.0701865919       -3.2873628165       -4.4739804506
 H          3.8963198777       -4.6014072057       -2.5537926878
 H          5.0866828436       -3.5012324895       -0.7204805226
 H          7.5790695955        0.2423563083       -1.8035274206
 H          9.4942718790        1.7631447188       -1.9906094141
 H          9.5206164209        3.8913943129       -0.7360381824
 H          7.6275087616        4.4618811347        0.7426839281
 H          5.7247048322        2.9374465104        0.9619808957
 H          4.1985614045        2.9709424705       -0.7348311931
 H          1.8964032019        3.5636044860       -0.2181843258
 H         -0.8491930496        0.0980976002        0.3250818105
 H         -3.1914217156       -2.8798667804        2.6766564227
 H         -3.4276938970       -5.2955270984        3.1681285008
 H         -4.9878587591       -6.6714190309        1.8385572002
 H         -6.2786287888       -5.6376220451        0.0080828314
 H         -6.0318348926       -3.2464965558       -0.4839513005
 H         -6.2285227828        0.2072574523       -2.1644228424
 H         -8.5207547995       -0.0309787651       -3.0128519094
 H        -10.2560452320       -1.0970023756       -1.6191450194
 H         -9.6825039827       -1.9261493546        0.6339348077
 H         -7.3856532959       -1.6765703301        1.4931722327
 H         -3.2880613813        2.1389067418       -1.4779335433
 H         -4.0630304479        4.2697909050       -2.4456067417
 H         -6.2889662620        5.1581727839       -1.8565937265
 H         -7.7298125883        3.9180730447       -0.2833709988
 H         -6.9431543953        1.8039870649        0.7093500250
