144

C     -2.914790   -1.974898    0.663527
C     -3.677093   -0.802178    0.165080
C     -5.069629   -0.887532    0.217409
C     -5.865572    0.142473   -0.219415
N     -7.279814    0.007554   -0.145184
C     -8.072712   -0.994129   -0.566717
C     -7.765804   -2.184735   -1.192867
C     -8.827923   -3.036672   -1.512194
C    -10.133043   -2.716863   -1.221252
C    -11.281668   -3.611219   -1.553279
C    -10.808081   -4.877033   -2.244552
C    -12.271326   -2.920489   -2.442576
C    -11.975740   -4.066026   -0.278477
C    -10.441778   -1.525395   -0.594477
C     -9.385584   -0.689135   -0.282380
C     -9.403364    0.545571    0.336996
C    -10.429196    1.339737    0.836726
C    -10.145187    2.553765    1.415019
C    -11.298812    3.353300    1.931350
C    -10.810807    4.653749    2.516839
C    -12.319493    3.616700    0.872882
C    -11.989424    2.597642    3.072983
C     -8.845399    2.981048    1.498282
C     -7.829200    2.191240    1.001647
C     -8.069819    0.954475    0.407656
C     -5.242265    1.274137   -0.715957
C     -3.847832    1.367303   -0.771843
C     -3.209410    2.603590   -1.314681
C     -3.048159    0.332884   -0.333127
B     -1.491106    0.384282   -0.370950
C     -0.732920    0.394552    0.988537
C     -1.450326    0.492013    2.164181
C     -0.839259    0.506561    3.410353
C      0.548669    0.417869    3.435246
C      1.248626    0.321299    2.254310
C      0.632230    0.308003    1.028710
B      1.501017    0.194905   -0.281658
C      3.050618    0.123402   -0.222568
C      3.775944    1.210293    0.220248
C      3.118325    2.474110    0.650583
C      5.174114    1.175745    0.285728
C      5.879466    0.038232   -0.095986
N      7.300858    0.010131   -0.026553
C      8.052720   -0.994380    0.513586
C      7.729860   -2.195283    1.108930
C      8.716560   -3.064233    1.587493
C     10.050342   -2.736713    1.474250
C     11.043790   -3.696167    1.992661
C     11.461367   -4.603019    0.850940
C     12.217421   -2.922433    2.542501
C     10.430723   -4.535425    3.097072
C     10.360816   -1.536438    0.878920
C      9.377630   -0.670030    0.401445
C      9.443373    0.561683   -0.221986
C     10.547749    1.321247   -0.566385
C     10.365810    2.535695   -1.193188
C     11.558713    3.333983   -1.556144
C     11.200983    4.641786   -2.233592
C     12.436709    2.478781   -2.442184
C     12.357235    3.637021   -0.297441
C      9.073589    2.944966   -1.452362
C      7.980288    2.176373   -1.102846
C      8.149535    0.955027   -0.473199
C      5.140984   -1.055201   -0.542013
C      3.763620   -1.009160   -0.601837
C      3.014395   -2.220537   -1.089535
C      0.724750    0.186469   -1.631183
C      1.436031    0.088461   -2.816255
C      0.772177    0.077278   -4.038226
C     -0.609162    0.164250   -4.079980
C     -1.335239    0.263282   -2.895200
C     -0.666223    0.273564   -1.687311
H     -3.306739   -2.902161    0.241360
H     -2.935265   -2.001845    1.786156
H     -1.841336   -1.862849    0.400238
H     -5.558300   -1.773254    0.605927
H     -6.736731   -2.452353   -1.429817
H     -8.595546   -3.979894   -2.007273
H    -10.021430   -5.403521   -1.665753
H    -11.691608   -5.566198   -2.272742
H    -10.508210   -4.692069   -3.290424
H    -12.879352   -2.183051   -1.880883
H    -11.786477   -2.389433   -3.272971
H    -12.990281   -3.707890   -2.804435
H    -12.625447   -3.281908    0.122313
H    -12.511530   -5.003947   -0.522211
H    -11.160742   -4.309811    0.460179
H    -11.458519   -1.230842   -0.344945
H    -11.454350    0.978286    0.758488
H    -10.214456    5.235222    1.777626
H    -10.250250    4.439822    3.445156
H    -11.695531    5.290216    2.746094
H    -12.830524    4.582030    1.092165
H    -13.138433    2.839932    0.891124
H    -11.924253    3.675729   -0.145917
H    -12.368279    3.277138    3.844052
H    -11.247975    1.918232    3.561136
H    -12.775937    1.930435    2.680491
H     -8.620864    3.954517    1.962032
H     -6.819004    2.555292    1.082319
H     -5.855209    2.110030   -1.071075
H     -3.148373    2.582988   -2.421405
H     -3.795779    3.479082   -1.042665
H     -2.194230    2.712680   -0.889077
H     -2.529032    0.560078    2.125260
H     -1.367692    0.580716    4.335377
H      1.027348    0.429666    4.414188
H      2.343935    0.254217    2.351767
H      3.621683    3.298188    0.098286
H      2.064950    2.474526    0.356183
H      3.271833    2.673896    1.716346
H      5.715518    2.056033    0.642561
H      6.704443   -2.510313    1.228274
H      8.436581   -4.017174    2.058761
H     12.342175   -4.131521    0.366468
H     11.672945   -5.625081    1.239409
H     10.624790   -4.664340    0.145752
H     11.828639   -2.141527    3.229173
H     12.745262   -2.459735    1.686102
H     12.949252   -3.582738    3.054513
H      9.951079   -5.414292    2.601162
H     11.228471   -4.947781    3.727668
H      9.747117   -3.910750    3.674282
H     11.384630   -1.252951    0.775482
H     11.549502    0.930436   -0.327873
H     12.141690    5.231093   -2.308845
H     10.518434    5.185907   -1.579490
H     10.744809    4.439420   -3.204026
H     12.134259    2.585280   -3.509392
H     12.256161    1.425716   -2.181147
H     13.512131    2.666436   -2.286258
H     13.080047    2.821481   -0.065257
H     12.958334    4.570390   -0.411754
H     11.667498    3.678675    0.570352
H      8.908380    3.908405   -1.949918
H      6.987398    2.539240   -1.327290
H      5.642119   -1.964177   -0.850886
H      1.963323   -2.227108   -0.732266
H      3.117316   -2.339895   -2.176408
H      3.475314   -3.129360   -0.623578
H      2.514788    0.017813   -2.856331
H      1.321275    0.000957   -4.957875
H     -1.142559    0.156695   -5.019471
H     -2.427064    0.331761   -2.939094
