69
 xtb: 6.7.1 (edcfbbe)
C           -6.21929187631043       -4.63615266121125        1.03864875885534
C           -5.38878307708539       -3.41056354284377        0.80772259568967
C           -5.63817199079835       -2.58836336887438       -0.28330515365791
C           -4.87078890852928       -1.46437094278512       -0.53578036056755
C           -5.18599226029647       -0.62425989554836       -1.73914943594294
C           -3.79547629666743       -1.13260280895480        0.30893819396786
B           -2.87774482287675        0.09877508948108        0.00099804001579
C           -1.32991254125167       -0.13430883071263       -0.07602482837822
C           -0.79942980375922       -1.34151239640743       -0.54730029798327
C            0.56038849719153       -1.55058952516877       -0.62587834179664
C            1.44420818479053       -0.55190262468556       -0.21338561823524
C            2.88108169588102       -0.76907827717358       -0.28364179827774
N            3.31478268283200       -1.94223560510117       -0.76193341005723
C            4.62030140514485       -2.07256297889552       -0.79790312935622
Cl           5.22521801534748       -3.55226024451513       -1.40087912126757
N            5.51108811086369       -1.18470978436703       -0.41858283373333
C            4.99660757079882       -0.04040813242843        0.04748010737764
C            5.92645485537581        0.99293247043431        0.48962612207220
C            7.30164808785600        0.77296032145505        0.41769683841840
C            8.17894618402138        1.75319500585147        0.83843079212157
C            7.69488580001684        2.95515422552942        1.33216685582638
C            6.32819925834921        3.17808054578302        1.40522541990790
C            5.44400688386408        2.20337130220111        0.98656721080693
N            3.69398838271526        0.19859854108569        0.12745298945646
C            0.93640478928684        0.65629090537097        0.26749618252624
C           -0.42548136623565        0.85731547658452        0.32376283285423
C           -3.41823274361283        1.55048424478223       -0.23306976428584
C           -3.04435024551041        2.28831801788545       -1.36613652809975
C           -2.17182570281091        1.69592069832957       -2.43734266620525
C           -3.49146799880666        3.59044011371592       -1.53833343437678
C           -4.30535879272621        4.20616822313084       -0.60223805692301
C           -4.79277657948607        5.60999594527596       -0.79271858474585
C           -4.67834938050103        3.47715086260737        0.51911467630805
C           -4.25756650325773        2.17196545235587        0.70948068575415
C           -4.68450435811376        1.44464342144548        1.95128916482036
C           -3.54588646761242       -1.96421415645224        1.41065668021754
C           -2.43687947840859       -1.67148615751558        2.38236037986674
C           -4.33958592947539       -3.07760552939449        1.64765834958307
H           -7.29625230304322       -4.36615879478945        1.01195588330949
H           -6.03886950556578       -5.38023334357434        0.26600644102206
H           -6.00057057351907       -5.07169115067419        2.02420550616823
H           -6.45223895890344       -2.83637859958370       -0.95111236970258
H           -6.07667291677077       -0.99474395446763       -2.24267384316596
H           -5.34607753003429        0.41029581218221       -1.45505819192949
H           -4.35906146270127       -0.64876369110728       -2.45127968178047
H           -1.47842588097814       -2.12208177211390       -0.86158251165747
H            0.96471894952921       -2.48053398882460       -0.99467804885435
H            7.65733532378709       -0.16838519435420        0.03171421331460
H            9.24369932403659        1.58340979750092        0.78449856507685
H            8.38326388272471        3.71987273997931        1.66221670631096
H            5.95405166991182        4.11555642300634        1.79156627685973
H            4.37749677816584        2.35788901673756        1.03642134617798
H            1.62806717852194        1.42220957073298        0.58179483192090
H           -0.81246859970855        1.79828451717342        0.68942357291621
H           -2.46255918899714        2.07649829250217       -3.41565476830953
H           -2.23316381457652        0.61096773633976       -2.45208093818072
H           -1.13169583271730        1.97120798167180       -2.26720362089072
H           -3.19568751507261        4.13424047467622       -2.42562355719474
H           -4.65835170444336        6.18993426163591        0.11767845137321
H           -5.85678636357385        5.60784890602369       -1.03238459534747
H           -4.26061952809790        6.10033268680248       -1.60484576944267
H           -5.31606189920690        3.94141732456683        1.25859901348430
H           -5.17427943379393        0.50755468085588        1.69811517766465
H           -5.37073285785553        2.05306536353569        2.53512825874844
H           -3.82169469157199        1.20866577654615        2.57364081072601
H           -1.54920829402123       -2.24783407518764        2.12028746668196
H           -2.16603536442876       -0.61948512534542        2.37860538654968
H           -2.73346585689022       -1.95504013179694        3.39026171409216
H           -4.12820224683777       -3.69896342566253        2.50740109861796
