126

C     -6.251111    5.570723   -1.351622
C     -7.258918    5.107673   -0.274676
C     -8.589466    5.841392   -0.553487
C     -6.707261    5.559370    1.095115
C     -7.493400    3.586126   -0.253452
C     -6.794464    2.702095   -1.092699
C     -7.016808    1.321274   -1.046035
C     -7.956366    0.796296   -0.157749
N     -8.155838   -0.607684   -0.068579
C     -7.145173   -1.551968    0.126485
C     -5.704496   -1.287787    0.168811
C     -5.147349   -0.422040    1.115319
C     -3.770399   -0.172921    1.124295
C     -2.910867   -0.790865    0.199983
C     -1.464779   -0.507393    0.198900
C     -0.698270   -0.567970    1.368614
F     -1.272671   -0.912939    2.531414
C      0.670603   -0.278234    1.369400
F      1.332959   -0.370021    2.533595
C      1.351423    0.094387    0.201801
C      2.791294    0.425682    0.210685
C      3.662666   -0.055438   -0.781594
C      5.025924    0.268882   -0.776291
C      5.563723    1.066291    0.238578
C      6.983236    1.436207    0.274448
N      7.384245    2.690749    0.268943
C      8.755456    2.661742    0.236249
C      9.654815    3.749602    0.160912
C      9.112676    5.046436    0.035178
C      9.947650    6.153226   -0.066154
C     11.323533    5.973534   -0.041271
C     11.863693    4.687954    0.091043
C     11.051161    3.528630    0.201649
C     11.540955    2.192724    0.379632
C     12.920548    1.889041    0.494737
C     13.388567    0.594854    0.736662
C     12.489553   -0.445871    0.891182
C     11.124756   -0.199058    0.771424
C     10.632889    1.095555    0.476715
C      9.235633    1.357266    0.312545
N      8.079878    0.572078    0.231453
C      8.013182   -0.831384    0.028242
C      7.187643   -1.624337    0.825201
C      7.109192   -2.999091    0.583426
C      7.838608   -3.612582   -0.455885
C      7.716710   -5.129181   -0.690903
C      8.574078   -5.650827   -1.866617
C      6.248263   -5.487238   -1.002977
C      8.169639   -5.889606    0.574083
C      8.656275   -2.786934   -1.246076
C      8.745299   -1.410772   -1.011353
C      4.704202    1.569642    1.219580
C      3.341308    1.250590    1.207167
C      0.583554    0.146132   -0.969739
F      1.152379    0.502724   -2.132351
C     -0.784769   -0.148480   -0.971732
F     -1.451084   -0.060785   -2.134053
C     -3.480063   -1.682754   -0.724392
C     -4.856835   -1.934356   -0.735627
N     -7.659071   -2.738398    0.373410
C     -9.022505   -2.586842    0.325671
C    -10.021516   -3.555251    0.576470
C     -9.606606   -4.837600    0.995663
C    -10.543651   -5.825175    1.277463
C    -11.895075   -5.540249    1.142085
C    -12.308860   -4.270268    0.719027
C    -11.389089   -3.231672    0.416497
C    -11.746038   -1.926214   -0.057796
C    -13.086622   -1.539126   -0.306462
C    -13.424357   -0.289969   -0.833905
C    -12.427320    0.616787   -1.149539
C    -11.095851    0.287716   -0.909514
C    -10.736950   -0.953312   -0.329777
C     -9.376332   -1.291077   -0.043487
C     -8.663685    1.649589    0.691208
C     -8.430111    3.027420    0.639488
H     -6.127933    6.660509   -1.336355
H     -5.258345    5.134988   -1.191212
H     -6.585622    5.296800   -2.358938
H     -9.328429    5.676419    0.237659
H     -9.035711    5.503999   -1.496285
H     -8.435753    6.924577   -0.624565
H     -7.411937    5.361042    1.909935
H     -6.500712    6.635910    1.103101
H     -5.772832    5.038775    1.335274
H     -6.056187    3.061521   -1.805138
H     -6.459040    0.681034   -1.725888
H     -5.777922    0.069924    1.853320
H     -3.377172    0.518160    1.868091
H      3.290738   -0.689663   -1.584671
H      5.656465   -0.106016   -1.579976
H      8.033427    5.187635    0.009410
H      9.524696    7.148781   -0.165773
H     11.984910    6.832739   -0.120303
H     12.947077    4.614449    0.110464
H     13.672676    2.668930    0.414575
H     14.456149    0.412128    0.827244
H     12.843844   -1.448792    1.113853
H     10.458028   -1.035986    0.948703
H      6.615089   -1.202857    1.648455
H      6.461628   -3.591996    1.227313
H      8.452969   -6.733200   -1.993786
H      9.640878   -5.464617   -1.700369
H      8.289338   -5.181440   -2.815039
H      5.890057   -4.943929   -1.885020
H      5.576305   -5.246915   -0.172394
H      6.136706   -6.558626   -1.205069
H      7.550537   -5.653574    1.447311
H      8.112748   -6.974392    0.425408
H      9.207161   -5.642085    0.831134
H      9.241825   -3.188893   -2.068839
H      9.373807   -0.805910   -1.662900
H      5.093077    2.224002    1.998236
H      2.710573    1.669917    1.989232
H     -2.854976   -2.199195   -1.451211
H     -5.266930   -2.637834   -1.458307
H     -8.546569   -5.060143    1.108897
H    -10.217955   -6.809216    1.603177
H    -12.635896   -6.305381    1.360445
H    -13.379020   -4.112079    0.625680
H    -13.910045   -2.219120   -0.107549
H    -14.466951   -0.041495   -1.015692
H    -12.679407    1.577211   -1.590669
H    -10.348557    1.010469   -1.219265
H     -9.380452    1.262148    1.412562
H     -8.990498    3.664566    1.321074
