  93
 
 F         -3.1262171765       -3.4881367875       -2.1663492049
 C         -3.0235656959       -3.8727311573       -0.8852417499
 F         -1.8058178784       -3.4620455573       -0.4697951314
 F         -2.9779540748       -5.2136095322       -0.8920552177
 C         -4.1177453452       -3.3234955958       -0.0173232003
 C         -4.5675353427       -4.0541486594        1.0775931844
 C         -5.5415554312       -3.5047181170        1.9001121342
 C         -6.0459911287       -2.2456671538        1.6480736386
 C         -5.5892918193       -1.5124181985        0.5470356587
 N         -6.0497246905       -0.2195912987        0.3077001551
 C         -5.2199226793        0.9129015665        0.1339250859
 C         -3.8304779645        0.9785647508        0.2937461373
 C         -3.0249746358        0.0164703137        0.9729220121
 C         -1.6688201105        0.1092057560        0.9669590730
 C         -0.9854337023        1.1749481128        0.3225028232
 C          0.4433612540        1.2106442423        0.2571707038
 C          1.2072228579        0.0235774359        0.3334905761
 C          2.5731850816        0.0452776140        0.2461868883
 C          3.2803712201        1.2523155111        0.1106893210
 C          4.7308511020        1.2681110702        0.0389003765
 C          5.4338438352        0.2129374443       -0.5587543776
 C          6.8081107833        0.2091111551       -0.6144416000
 C          7.5430875266        1.2593530071       -0.0563463611
 C          8.9894551802        1.3061814682       -0.0800700958
 N          9.6635096629        2.4270275288       -0.1345735135
 C         10.9807444205        2.0803593964       -0.1955186468
 C         12.1203042977        2.8766743912       -0.2640684848
 C         13.3429799631        2.2422556210       -0.2952943077
 C         13.4486322461        0.8496663031       -0.2507741393
 C         12.3326118348        0.0393962532       -0.1850214689
 C         11.0986958750        0.6688771060       -0.1732308499
 N          9.8097754956        0.1919753101       -0.0981195637
 C          9.4544049576       -1.1538887296        0.0863181114
 C          8.6534219052       -1.5225181333        1.1632279934
 C          8.3155664804       -2.8502834202        1.3430088001
 C          8.7816954197       -3.8153306855        0.4646605167
 C          9.5867084982       -3.4488169517       -0.6006433939
 C          9.9239108489       -2.1214586850       -0.7952854907
 C          6.8489357654        2.3334744644        0.5113701649
 C          5.4753937933        2.3374952252        0.5573066227
 C          2.5282148202        2.4376785687        0.0486987860
 C          1.1598647703        2.4184873779        0.1013894970
 C         -1.7971055593        2.2036601974       -0.2329771483
 C         -3.1516330836        2.1151776479       -0.2449020559
 N         -5.9609170516        1.9948754197       -0.1618267557
 C         -7.2292474751        1.6127597085       -0.1320973771
 C         -8.3854984048        2.4300634751       -0.3018873503
 C         -8.2629596825        3.8087538348       -0.4891377308
 C         -9.3854773808        4.5972449525       -0.6026831713
 C        -10.6410989329        4.0068719638       -0.5187609304
 C        -10.7715964236        2.6445369959       -0.3422017597
 C         -9.6528905450        1.8084152197       -0.2399916188
 C         -9.7537796861        0.3626154272       -0.1076937026
 C        -10.9865646335       -0.2892751173       -0.1715873166
 C        -11.0976464261       -1.6626983924       -0.1078736376
 C         -9.9524287546       -2.4487903472       -0.0041351802
 C         -8.7211907231       -1.8520638568        0.0734319311
 C         -8.5831275576       -0.4472836807        0.0538409426
 C         -7.3427777733        0.2165890032        0.1310152740
 C         -4.6199922115       -2.0646159124       -0.2945406639
 H         -4.1623073796       -5.0324467139        1.2795515835
 H         -5.8944231278       -4.0616265432        2.7540917741
 H         -6.7856223646       -1.8083943704        2.3022419418
 H         -3.4949198577       -0.7615026921        1.5531078984
 H         -1.0964642533       -0.6227335329        1.5160970430
 H          0.7020299903       -0.9263043005        0.4198731834
 H          3.1210937327       -0.8833182807        0.3111456729
 H          4.8873086803       -0.5959787125       -1.0199954041
 H          7.3144130312       -0.6010101730       -1.1179649447
 H         12.0337050199        3.9509191280       -0.2862210461
 H         14.2470733990        2.8307291171       -0.3486237737
 H         14.4289001786        0.3967033243       -0.2666532845
 H         12.4195577318       -1.0360792178       -0.1384973508
 H          8.2989982943       -0.7653794197        1.8468985830
 H          7.6909345838       -3.1333953864        2.1768434402
 H          8.5178092690       -4.8517676273        0.6107310697
 H          9.9502479939       -4.1980304639       -1.2880797279
 H         10.5363004995       -1.8259689136       -1.6343794655
 H          7.4208017348        3.1517921502        0.9200687721
 H          4.9637070924        3.1607328578        1.0327926096
 H          3.0393165469        3.3811256902       -0.0748560345
 H          0.6218277491        3.3530870620        0.0585062910
 H         -1.3226911801        3.0497314977       -0.7054968621
 H         -3.7591029368        2.8790356608       -0.7031145562
 H         -7.2690470307        4.2257276184       -0.5321494732
 H         -9.2952087203        5.6631860335       -0.7474237988
 H        -11.5280442312        4.6191707114       -0.5933964296
 H        -11.7672411513        2.2354027613       -0.2792862341
 H        -11.8912408330        0.2849924207       -0.2891030150
 H        -12.0704385336       -2.1277113179       -0.1596126842
 H        -10.0328521609       -3.5254700639        0.0079693489
 H         -7.8392080011       -2.4692114516        0.1212619185
 H         -4.2661455052       -1.5076241370       -1.1483172657
