93

C     -8.155393    3.890229   -0.482136
C     -7.136002    2.807835   -0.453670
C     -7.118116    1.773656   -1.367014
C     -6.139167    0.782681   -1.296030
C     -6.161930   -0.310595   -2.302587
C     -5.160450    0.793625   -0.323374
B     -4.054611   -0.302980   -0.222634
C     -2.559975    0.153798   -0.018382
C     -2.073426    1.301957   -0.601022
C     -0.759859    1.681357   -0.407159
C      0.112777    0.918701    0.380670
N      1.423308    1.393115    0.511773
C      1.715910    2.669189    0.897617
C      0.938334    3.760450    1.238216
C      1.490992    4.972227    1.601776
C      2.864948    5.097421    1.625707
C      3.675667    4.032730    1.292861
C      3.091437    2.827199    0.931535
C      3.638052    1.611282    0.555336
C      4.942635    1.194405    0.414856
C      5.279902   -0.096235    0.017762
N      6.621979   -0.523235   -0.149202
C      7.160498   -1.668188    0.526886
C      6.379077   -2.390498    1.394926
C      6.882390   -3.493726    2.053927
C      8.190215   -3.917300    1.869288
C      8.987648   -3.196185    0.996444
C      8.460117   -2.091354    0.345725
O      9.300233   -1.408720   -0.512236
C      8.842799   -0.293851   -1.196990
C      9.733948    0.348147   -2.045236
C      9.321946    1.461042   -2.749310
C      8.020911    1.900185   -2.581530
C      7.155520    1.248915   -1.735750
C      7.541420    0.147601   -1.029313
C      4.201326   -0.938801   -0.227907
C      2.891393   -0.525369   -0.088118
C      2.595360    0.763682    0.307829
C     -0.373352   -0.233224    0.965898
C     -1.687621   -0.593718    0.759518
C     -4.419799   -1.803868   -0.128822
C     -3.952646   -2.712115   -1.086062
C     -3.098685   -2.272644   -2.214367
C     -4.267830   -4.058144   -1.020073
C     -5.050137   -4.541546   -0.010391
C     -5.392881   -5.989886    0.065936
C     -5.520273   -3.685877    0.935687
C     -5.204991   -2.343699    0.868410
C     -5.721373   -1.421590    1.902303
C     -5.194166    1.850081    0.594450
C     -4.208697    1.968804    1.670761
C     -6.177102    2.834449    0.513595
H     -8.725913    3.828383   -1.452307
H     -7.709766    4.884739   -0.428396
H     -8.868943    3.672172    0.337175
H     -7.889335    1.768828   -2.130033
H     -5.176729   -0.352737   -2.852205
H     -6.896322   -0.082294   -3.101946
H     -6.362962   -1.299445   -1.864859
H     -2.747746    1.888426   -1.207961
H     -0.425576    2.594318   -0.888054
H     -0.150469    3.693028    1.228943
H      0.870091    5.821042    1.866868
H      3.373504    6.016475    1.900520
H      4.749670    4.070397    1.293241
H      5.709313    1.921913    0.636884
H      5.353869   -2.114738    1.591144
H      6.289156   -4.079974    2.742077
H      8.606894   -4.781092    2.376240
H     10.010885   -3.495688    0.827376
H     10.748471   -0.011804   -2.162644
H      9.992149    1.989612   -3.422628
H      7.683602    2.776956   -3.131771
H      6.154398    1.644810   -1.662386
H      4.346553   -1.962313   -0.547474
H      2.059207   -1.218047   -0.290433
H      0.296094   -0.826548    1.575674
H     -2.099054   -1.487163    1.201908
H     -3.769111   -2.281625   -3.122742
H     -2.341516   -3.060090   -2.436024
H     -2.694043   -1.268279   -2.127175
H     -3.888367   -4.747822   -1.783422
H     -5.788118   -6.366864   -0.887543
H     -4.528410   -6.584518    0.464292
H     -6.201090   -6.142142    0.822855
H     -6.150635   -4.031947    1.762129
H     -6.328610   -1.943815    2.670191
H     -4.842328   -1.025735    2.450302
H     -6.387813   -0.638854    1.488883
H     -3.726066    1.053255    2.001068
H     -4.755875    2.359773    2.578839
H     -3.478920    2.796964    1.449586
H     -6.182392    3.651030    1.243427
