  103
 
 C          0.0938787124        6.7827796246        6.0716012761
 C          0.0968248527        6.1121451004        7.2856937833
 N          0.0822768408        4.7934461162        7.3789675580
 C          0.0574807673        4.0852904231        6.2675070768
 C          0.0419329931        4.6445992412        4.9879086089
 C          0.0119130904        3.8009661685        3.7884963551
 C          0.7819146253        4.1234406392        2.6726355437
 C          0.7571376613        3.3209617877        1.5497840046
 C         -0.0330041247        2.1759741008        1.4961157200
 Si        -0.0288852671        1.0893503569       -0.0578035393
 C         -0.0563885759        2.1748650791       -1.5803377308
 C         -0.8778854004        3.3267716085       -1.6311261601
 C         -0.9617824996        4.1047854723       -2.7432413563
 C         -0.1865074649        3.8294223225       -3.9171687750
 C         -0.1895121093        4.6812798921       -5.0338580002
 C          0.7671269183        4.6216340748       -6.1092663453
 C          0.6525162771        5.4185808080       -7.2080825842
 C         -0.3851039227        6.3688625286       -7.2657600622
 N         -1.3105847247        6.3790771658       -6.3126940375
 C         -1.2585630021        5.6146564345       -5.2762554099
 C          0.6417484209        2.6591980845       -3.8545285618
 C          0.7073482052        1.8900405330       -2.7341523265
 C         -1.5230628218       -0.0808078511        0.0178772902
 C         -2.6743613193        0.1641685194       -0.7232144755
 C         -3.7548840152       -0.6949164292       -0.6787603251
 C         -3.7075347882       -1.8284524809        0.1278835642
 N         -4.7982106445       -2.7071684250        0.1800466010
 C         -6.1133586826       -2.3509433830        0.3990664047
 C         -6.6589826954       -1.1017202071        0.6603614731
 C         -8.0225564751       -1.0253274034        0.8709153224
 C         -8.8293197589       -2.1602771435        0.8336327318
 C         -8.2883318295       -3.4095498708        0.5989944239
 C         -6.9210618799       -3.5118307078        0.3840949824
 C         -6.0389084089       -4.6189544767        0.1375330696
 C         -6.2369899509       -5.9855091740       -0.0017245471
 C         -5.1441748934       -6.7891610662       -0.2630519920
 C         -3.8700790178       -6.2434649989       -0.4013379441
 C         -3.6478452639       -4.8862004417       -0.2674516766
 C         -4.7379304492       -4.0766880498        0.0207231978
 C         -2.5645096093       -2.0862240230        0.8799223950
 C         -1.4895072313       -1.2227057569        0.8140315658
 C          1.5131168754       -0.0120539253       -0.0572455146
 C          2.6297374532        0.2849277704        0.7164379065
 C          3.7497743543       -0.5232039667        0.7024685586
 C          3.7785494799       -1.6553255037       -0.1067782979
 N          4.9108092098       -2.4813626958       -0.1289193401
 C          4.9123291161       -3.8513870578        0.0356369615
 C          3.8553191682       -4.7106869184        0.3018366040
 C          4.1388824251       -6.0550248435        0.4494215054
 C          5.4406961703       -6.5395435323        0.3453277348
 C          6.4998525676       -5.6859043501        0.1046932466
 C          6.2402028583       -4.3310978787       -0.0476597357
 C          7.0737843688       -3.1839929208       -0.2801679199
 C          8.4390000435       -3.0166919603       -0.4654083061
 C          8.9242219303       -1.7437660719       -0.6948735499
 C          8.0649480452       -0.6490240194       -0.7554293120
 C          6.7023206564       -0.7901459952       -0.5744053953
 C          6.2119010085       -2.0633166811       -0.3195008967
 C          2.6712806988       -1.9639139742       -0.8922601012
 C          1.5565690847       -1.1505030940       -0.8571962327
 C         -0.8066012900        1.8664811895        2.6098741283
 C         -0.7850077514        2.6592539707        3.7405537799
 C          0.0645225615        6.0363073935        4.9071718451
 H          0.1072308593        7.8614693367        6.0391268552
 H          0.1114168408        6.6482278180        8.2253450866
 H          0.0672607919        3.0107173389        6.3987563520
 H          1.4178334204        4.9972177172        2.6968226302
 H          1.3586537757        3.5866493722        0.6917171267
 H         -1.4637103781        3.5777444242       -0.7568993936
 H         -1.6111881354        4.9674788956       -2.7348369865
 H          1.6229003599        3.9725137063       -6.0111725006
 H          1.3871416252        5.3943055833       -7.9986119879
 H         -0.4537232687        7.1170410256       -8.0371360287
 H         -2.1285098556        5.6201040853       -4.6357976571
 H          1.2315418591        2.3886886552       -4.7168754165
 H          1.3568904516        1.0253295202       -2.7202724597
 H         -2.7162432535        1.0381158343       -1.3568886386
 H         -4.6318958659       -0.5060166881       -1.2803297089
 H         -6.0393645753       -0.2191277687        0.7090783151
 H         -8.4720978436       -0.0643022506        1.0725253760
 H         -9.8912381256       -2.0584679328        1.0004235214
 H         -8.9114554912       -4.2909474614        0.5863490787
 H         -7.2267694789       -6.4067040809        0.0887932407
 H         -5.2762513838       -7.8552523448       -0.3720614039
 H         -3.0376081224       -6.8951745075       -0.6219224203
 H         -2.6598413892       -4.4703400682       -0.3949442684
 H         -2.5340868878       -2.9542806619        1.5222834310
 H         -0.6040579276       -1.4343120395        1.3970638393
 H          2.6149448112        1.1583769552        1.3521346067
 H          4.5998269667       -0.2949372434        1.3286949776
 H          2.8457503052       -4.3416836447        0.4019486506
 H          3.3334866511       -6.7448935491        0.6538927188
 H          5.6209773235       -7.5974572002        0.4645100569
 H          7.5104738914       -6.0597592120        0.0402241164
 H          9.1034754114       -3.8668879820       -0.4344565014
 H          9.9834224546       -1.5916463404       -0.8392372783
 H          8.4722372387        0.3316875608       -0.9520325249
 H          6.0417614560        0.0610779818       -0.6407768196
 H          2.6997856085       -2.8312632152       -1.5356477396
 H          0.6990761179       -1.4001892415       -1.4658543781
 H         -1.4395897536        0.9906853741        2.5877652181
 H         -1.4059477040        2.4073663998        4.5884446507
 H          0.0389581238        6.5230996392        3.9423571325
