53

C     -5.191278    0.000021    0.759243
C     -4.049850    0.000036   -0.290938
C     -4.652749    0.000088   -1.719831
C     -3.234381   -1.288359   -0.113848
C     -3.871712   -2.547452   -0.249423
C     -3.176873   -3.744857   -0.099469
C     -1.824802   -3.713849    0.190068
C     -1.177692   -2.485184    0.327460
C     -1.859069   -1.252793    0.180366
N     -1.165358   -0.000027    0.327618
C      0.237790   -0.000056    0.624634
C      0.677049   -0.000172    1.957374
C      2.042113   -0.000198    2.248832
C      2.979704   -0.000104    1.207965
C      2.550551    0.000010   -0.119176
C      1.181413    0.000032   -0.413583
C      3.532837    0.000115   -1.221460
O      3.157670    0.000250   -2.387819
C      4.974288    0.000069   -0.901423
C      5.914633    0.000135   -1.939919
C      7.279460    0.000092   -1.646928
C      7.708439   -0.000002   -0.320040
C      6.773411   -0.000062    0.716438
C      5.403164   -0.000035    0.424706
C      4.421693   -0.000128    1.527549
O      4.797904   -0.000232    2.693828
C     -1.859032    1.252768    0.180455
C     -1.177624    2.485131    0.327652
C     -1.824696    3.713824    0.190336
C     -3.176762    3.744888   -0.099226
C     -3.871633    2.547514   -0.249267
C     -3.234340    1.288393   -0.113767
H     -4.786683   -0.000035    1.779294
H     -5.843908   -0.874946    0.667067
H     -5.843862    0.875031    0.667146
H     -5.284670   -0.875049   -1.906515
H     -5.284596    0.875283   -1.906489
H     -3.861528    0.000068   -2.480210
H     -4.933646   -2.608239   -0.478189
H     -3.692969   -4.694542   -0.210209
H     -1.267540   -4.638879    0.309136
H     -0.115625   -2.513781    0.554135
H     -0.051544   -0.000243    2.765604
H      2.369273   -0.000293    3.287225
H      0.838641    0.000117   -1.447130
H      5.587582    0.000218   -2.978486
H      8.007882    0.000132   -2.454942
H      8.772047   -0.000029   -0.091557
H      7.116243   -0.000133    1.749833
H     -0.115561    2.513685    0.554350
H     -1.267413    4.638831    0.309482
H     -3.692828    4.694596   -0.209912
H     -4.933562    2.608348   -0.478040
