53
 xtb: 6.7.1 (edcfbbe)
C           -5.16781071696663        0.02990070328718        0.75640486004438
C           -4.03866706210356        0.00286200834948       -0.29102241892194
C           -4.63001059617401       -0.01690376308358       -1.71348321394685
C           -3.21800537390180       -1.25824946865527       -0.09100555376618
C           -3.83252648561161       -2.49940682649492       -0.19356043373498
C           -3.13402247618201       -3.68216946026815       -0.03136689109646
C           -1.77756036351121       -3.63585952186535        0.23562094729679
C           -1.14100018040161       -2.41635785571834        0.34221488220793
C           -1.84823255209033       -1.22064559639593        0.18862271536834
N           -1.18008477657743       -0.01034203543959        0.30622787970295
C            0.20722557877413       -0.01561450469806        0.60767426929087
C            0.63446503139353       -0.07143032434473        1.93381431672452
C            1.98558674339263       -0.07610938498145        2.22154243939435
C            2.93439163209345       -0.03185779986678        1.20061473812930
C            2.50648941200329        0.01723116744002       -0.13425716891218
C            1.14444818480638        0.03041957061324       -0.41749473745359
C            3.46571831026277        0.05110899671536       -1.26171812829152
O            3.08882550741111        0.10069820985826       -2.42300900591288
C            4.89707364868877        0.03611795966398       -0.90211510540025
C            5.84592249440264        0.06109849410952       -1.92248620026339
C            7.19846534189229        0.04972312659221       -1.63044174251727
C            7.62145044361672        0.01400789466240       -0.30930228100555
C            6.68973181069519       -0.01244682887200        0.71379239750990
C            5.32496206898002       -0.00231602800248        0.43409836342101
C            4.36854221843127       -0.03590612902225        1.55889900684004
O            4.73896633489997       -0.07528529598069        2.72285869440015
C           -1.82880697946431        1.20709884216240        0.14768273398674
C           -1.10798044038714        2.39668953461054        0.28531321249212
C           -1.72646533147967        3.62168661349125        0.14197575100147
C           -3.07961346077995        3.68002231181996       -0.13904945433321
C           -3.79434943494080        2.50327502758429       -0.27209108060661
C           -3.19781450517456        1.25684685450143       -0.13430592286631
H           -4.74390395280607        0.01345816292940        1.75923329211321
H           -5.79722636887044       -0.87080239816393        0.65431389214201
H           -5.79420257199589        0.88918787161964        0.64466983455863
H           -5.24848726831754       -0.88379580502670       -1.87251501676359
H           -5.24118184773090        0.87742218599966       -1.88241206864710
H           -3.82697721098192       -0.01223749616807       -2.44889159146788
H           -4.87504627298901       -2.55598137850803       -0.43779882061834
H           -3.62034965549976       -4.63056920694658       -0.16491806895003
H           -1.18866104133760       -4.54010524211182        0.32108955406705
H           -0.07093219807885       -2.37777539928487        0.53239677269633
H           -0.09648773875596       -0.03162543795972        2.72831444318877
H            2.33496177804270       -0.03282543414725        3.24359409516062
H            0.82711793965969        0.02065019480811       -1.45044657433243
H            5.49504163916937        0.02611013884866       -2.94421926507370
H            7.92143022264029        0.02019351288119       -2.43195998829504
H            8.67551182447065        0.00167563832058       -0.07674601455137
H            6.99705818234859       -0.01213690212796        1.74945829442671
H           -0.06255411400340        2.36933365524686        0.52184749316531
H           -1.17057492478916        4.53450833166584        0.29016911908716
H           -3.60034946426066        4.63132658147190       -0.20411764405336
H           -4.86350106509071        2.55989658700691       -0.46170701533023
