  76
 
 C          8.0517501631       -3.5765418109       -1.6095343115
 C          6.8105334196       -3.6101605375       -1.0075665686
 C          6.1513769462       -2.4300554193       -0.6942263989
 C          6.7280879212       -1.1999550889       -0.9818394275
 C          7.9880019315       -1.1749370663       -1.5954329946
 C          8.6401536466       -2.3530652947       -1.9038024364
 O          8.6279958366        0.0027934673       -1.9153392012
 C          7.9863616577        1.1797264711       -1.5957696071
 C          8.6369808863        2.3586584409       -1.9043073302
 C          8.0470833458        3.5814107389       -1.6100247328
 C          6.8059820002        3.6134952199       -1.0077362767
 C          6.1483589899        2.4325779425       -0.6942275849
 C          6.7264439331        1.2031855399       -0.9821185343
 N          6.0906317216        0.0012146679       -0.6832045387
 C          4.8446565303        0.0004289954        0.0004267956
 C          3.6512559059        0.0027327399       -0.7324421448
 C          2.4447604550        0.0018646163       -0.0759664880
 C          2.3940879464       -0.0011906949        1.3239046948
 C          3.5953202297       -0.0033557286        2.0665585109
 C          3.5514538763       -0.0060958633        3.4956317429
 C          2.3782530210       -0.0066563429        4.1672260443
 C          1.1405309686       -0.0047531056        3.4581665906
 N          0.0000171663       -0.0053912339        4.1440402549
 C         -1.1405025209       -0.0039001439        3.4581775856
 C         -2.3782183192       -0.0044844449        4.1672501705
 C         -3.5514251860       -0.0034775205        3.4956668359
 C         -3.5953039743       -0.0018718275        2.0665923751
 C         -4.8163092314       -0.0012766687        1.3784780445
 C         -4.8446598257        0.0001485515        0.0004699507
 N         -6.0906430877        0.0005795018       -0.6831473686
 C         -6.7276692372        1.2022973913       -0.9804833625
 C         -6.1506777753        2.4318918787       -0.6912622379
 C         -6.8094326370        3.6125570804       -1.0033389156
 C         -8.0505503559        3.5800118590       -1.6055679715
 C         -8.6393114657        2.3570539151       -1.9012713917
 C         -7.9875678071        1.1783723195       -1.5941564451
 O         -8.6280200363        0.0012124093       -1.9152546965
 C         -7.9868284875       -1.1762898808       -1.5969101806
 C         -8.6378533103       -2.3546648850       -1.9067171242
 C         -8.0482965479       -3.5779363103       -1.6139121581
 C         -6.8070918071       -3.6110962583       -1.0118961717
 C         -6.1490732046       -2.4307432442       -0.6971019864
 C         -6.7268836493       -1.2008432603       -0.9833613168
 C         -3.6512659460        0.0011339529       -0.7324126968
 C         -2.4447642308        0.0006155935       -0.0759478554
 C         -2.3940783547       -0.0009566550        1.3239254363
 C         -1.1409050450       -0.0018536238        2.0310884328
 N          0.0000050928       -0.0008725651        1.3477713615
 C          1.1409209909       -0.0021948598        2.0310783361
 C          4.8163190728       -0.0026057636        1.3784329352
 H          8.5698006982       -4.4904548128       -1.8545683496
 H          6.3419556038       -4.5541763640       -0.7746571528
 H          5.1811479199       -2.4619156119       -0.2226642736
 H          9.6093878346       -2.2947922507       -2.3741079017
 H          9.6062615397        2.3015780356       -2.3746671555
 H          8.5639160681        4.4959609956       -1.8552388336
 H          6.3363185751        4.5569312751       -0.7746677307
 H          5.1782946649        2.4632660052       -0.2222455563
 H          3.6955991422        0.0051161584       -1.8111778287
 H          1.5143017126        0.0034537287       -0.6207986993
 H          4.4903244337       -0.0075915240        4.0297852236
 H          2.3320211507       -0.0085551551        5.2453173986
 H         -2.3319769722       -0.0058101925        5.2453419929
 H         -4.4902911880       -0.0039558250        4.0298301671
 H         -5.7421775611       -0.0020027281        1.9352053976
 H         -5.1805482551        2.4629324656       -0.2194348597
 H         -6.3406112495        4.5561606221       -0.7692508220
 H         -8.5682616856        4.4943632440       -1.8496734928
 H         -9.6085369488        2.2996182098       -2.3716992118
 H         -9.6071541270       -2.2967429355       -2.3769323556
 H         -8.5654760026       -4.4920467372       -1.8600464580
 H         -6.3376588369       -4.5549457277       -0.7800393652
 H         -5.1788901509       -2.4622661820       -0.2254225137
 H         -3.6956198608        0.0022441194       -1.8111501177
 H         -1.5143105940        0.0012684635       -0.6207907372
 H          5.7421924769       -0.0043754708        1.9351495931
