  128
 
 N         -7.0090797671        6.4438862548        2.0274107405
 C         -6.5160959171        5.4458086298        1.7433858052
 C         -5.8976342836        4.2241223299        1.4162977673
 C         -4.9349693773        3.7032327043        2.2656281466
 C         -4.3298225263        2.4872930177        1.9749791729
 C         -4.6709993794        1.7835213845        0.8329882572
 N         -4.0728124514        0.5361672225        0.6005275465
 C         -4.7290552165       -0.6984196882        0.4836211753
 C         -6.1291346127       -0.8863440513        0.6088861799
 C         -6.9051726876       -0.0065575068        1.3992156523
 C         -8.2552760568       -0.1178953238        1.5004804851
 C         -8.9675373788       -1.1274098295        0.7874151660
 C        -10.3586680023       -1.2238113587        0.8467380689
 C        -11.0323657343       -2.2258421599        0.1779062548
 C        -10.3313482575       -3.1766023593       -0.5815351686
 C        -10.9969073286       -4.2145699758       -1.2741846532
 C        -10.2874756865       -5.1413184926       -2.0157942947
 C         -8.9129091484       -5.0701835885       -2.0994578637
 C         -8.1998625459       -4.0480454589       -1.4248588833
 C         -6.8046487898       -3.9422840238       -1.4894821745
 C         -6.1314547035       -2.9324859251       -0.8288161627
 C         -6.8077408714       -1.9835784812       -0.0567156138
 C         -8.2228181618       -2.0667496233        0.0274982673
 C         -8.9157000371       -3.0948962888       -0.6568798857
 N         -3.8471673014       -1.6747283029        0.2817196395
 C         -2.6334490972       -1.1142485977        0.2917220575
 C         -1.3740108141       -1.7680733359        0.1965868081
 C         -1.2837915201       -3.1610364982        0.1114234029
 C         -0.0600593832       -3.7793121464        0.0796907002
 C          1.1118072942       -3.0138845211        0.1368614258
 C          2.4280719795       -3.6636217259        0.1250684350
 C          2.6506741255       -4.8367910577        0.8447778208
 C          3.8906226462       -5.4415887358        0.8506252605
 C          4.9408002038       -4.8934359596        0.1181216235
 N          6.2001601428       -5.5036208381        0.1195463978
 C          6.4523280870       -6.8417011292       -0.1130177100
 C          5.5734412112       -7.8621745927       -0.4468386959
 C          6.0986571239       -9.1229667069       -0.6565516802
 C          7.4653950109       -9.3693413553       -0.5479354435
 C          8.3476934381       -8.3526467050       -0.2411473843
 C          7.8436519034       -7.0770255342       -0.0257683288
 C          8.4532014135       -5.8131875700        0.2814338056
 C          9.7643649424       -5.4147391015        0.5045264110
 C         10.0107960991       -4.0907411092        0.8087452418
 C          8.9678761868       -3.1726835856        0.9073845306
 C          7.6551204184       -3.5453735539        0.6900644382
 C          7.4037263432       -4.8691027825        0.3586818589
 C          4.7250138632       -3.7291615823       -0.6151210328
 C          3.4866767018       -3.1215656329       -0.6027801089
 C          1.0190314266       -1.6321380858        0.2094783267
 C         -0.2102878467       -0.9674604976        0.2305472216
 C         -0.3230729671        0.4837844938        0.2563773803
 C          0.8028179440        1.2982681700        0.1425230895
 C          0.7315430194        2.6831852269        0.1120383594
 C          1.9470908356        3.4914777680       -0.0063025547
 C          2.0763945152        4.6923027810        0.6923464664
 C          3.2238653174        5.4510330218        0.5951394824
 C          4.2721758657        5.0351823487       -0.2229233567
 N          5.4363096812        5.8029561600       -0.3293755352
 C          5.4912687577        7.1610320392       -0.5781868756
 C          4.4613931724        8.0575825511       -0.8247453494
 C          4.7983384428        9.3739063818       -1.0765325632
 C          6.1260627207        9.7946954841       -1.0941324260
 C          7.1564465176        8.9019090656       -0.8757382538
 C          6.8427043859        7.5738642401       -0.6202281649
 C          7.6360673003        6.4010275041       -0.3781078316
 C          9.0027031033        6.1765465003       -0.2815558347
 C          9.4453758437        4.8973893538       -0.0089832410
 C          8.5434780455        3.8535347943        0.1832808486
 C          7.1789855812        4.0525524867        0.0927173089
 C          6.7289320625        5.3302447350       -0.2077216490
 C          4.1480319807        3.8441743992       -0.9351811613
 C          3.0045621421        3.0824985302       -0.8197836692
 C         -0.5303880932        3.2890779891        0.1760368131
 C         -1.6605793177        2.5251503659        0.2898024844
 C         -1.5959767297        1.1210981682        0.3576700114
 C         -2.7320416984        0.2830749735        0.4601891779
 C         -5.6253604504        2.3051912738       -0.0860439180
 C         -5.9544287643        1.6573849616       -1.2927042927
 C         -6.8931217298        2.1856931355       -2.1372814256
 C         -7.5409234611        3.3843700798       -1.8165829738
 C         -7.2240456538        4.0521530563       -0.6638839196
 C         -6.2586914992        3.5374010684        0.2215997744
 H         -4.6682867677        4.2364821415        3.1658658932
 H         -3.5951257439        2.0742077004        2.6509693778
 H         -6.4028951343        0.7439010283        1.9894240932
 H         -8.8118147904        0.5527347002        2.1384042235
 H        -10.9080034113       -0.4980768418        1.4293717216
 H        -12.1092576830       -2.2894922342        0.2346552537
 H        -12.0736325972       -4.2720948176       -1.2133841954
 H        -10.8167979663       -5.9270252414       -2.5356732597
 H         -8.3590900530       -5.7920584665       -2.6811742108
 H         -6.2500518198       -4.6645209253       -2.0710872910
 H         -5.0575470753       -2.8751456325       -0.8961472063
 H         -2.2022157386       -3.7264472997        0.0814183282
 H          0.0069568877       -4.8537381396       -0.0023730492
 H          1.8502734118       -5.2599839953        1.4334266714
 H          4.0600692580       -6.3314139857        1.4382861760
 H          4.5149249690       -7.6781328606       -0.5525269132
 H          5.4345856350       -9.9347980203       -0.9143477884
 H          7.8362658913      -10.3693373322       -0.7166548705
 H          9.4088091506       -8.5394837917       -0.1736663199
 H         10.5704867663       -6.1302763194        0.4450296465
 H         11.0236004006       -3.7595162114        0.9834567982
 H          9.1895291225       -2.1471304095        1.1637212743
 H          6.8525084178       -2.8300914991        0.7887893128
 H          5.5287572331       -3.3172925574       -1.2070522314
 H          3.3269932268       -2.2311456413       -1.1930265171
 H          1.9390396453       -1.0745329836        0.2844551227
 H          1.7808686168        0.8489749249        0.0852511800
 H          1.2801896034        5.0162078690        1.3460874386
 H          3.3251244561        6.3608063139        1.1676825902
 H          3.4300764848        7.7387041910       -0.8335612331
 H          4.0142272901       10.0915151243       -1.2679281377
 H          6.3479610422       10.8327653732       -1.2918577317
 H          8.1863899906        9.2238227174       -0.9067927225
 H          9.7005521735        6.9895819788       -0.4130390029
 H         10.5043412584        4.7005879383        0.0672703441
 H          8.9185258586        2.8669038142        0.4122571152
 H          6.4884343540        3.2405676211        0.2639075312
 H          4.9452695409        3.5337189455       -1.5939440055
 H          2.9130504004        2.1746031281       -1.3975841016
 H         -0.6140119257        4.3628815441        0.1014020306
 H         -2.6221474464        3.0118264464        0.2965251220
 H         -5.4560137945        0.7355445054       -1.5532878512
 H         -7.1371044988        1.6762457011       -3.0573451712
 H         -8.2861845691        3.7843731102       -2.4873912694
 H         -7.7086527125        4.9851085622       -0.4148114158
