  47
 
 C          1.1665677665        4.7613505658        1.8810618664
 C         -0.0565668237        4.3158098162        1.0890846376
 C          0.2741372767        3.1702793274        0.1355461299
 C         -0.9456464117        2.7246382780       -0.6651392440
 C         -0.6299525825        1.5464114902       -1.6040891209
 C         -0.3117202973        0.3011590681       -0.8449857422
 C          0.9971612380       -0.1212127549       -0.6026842041
 N          2.1610052667        0.4876917927       -1.0087319311
 C          3.2435535523       -0.2244105703       -0.5801297157
 C          4.5925067920        0.0172580665       -0.7544677099
 C          5.4860884250       -0.8899821305       -0.2031942866
 C          5.0281050801       -2.0104403213        0.5044367862
 C          3.6881337027       -2.2623564219        0.6862184730
 C          2.7559779653       -1.3639978594        0.1423702358
 C          1.3497713291       -1.2861140863        0.1215844943
 C          0.3265734841       -2.1164705760        0.6698520185
 C         -0.9759633597       -1.6994443080        0.4467828935
 N         -2.1222933308       -2.3225869303        0.8734775326
 C         -3.2162705903       -1.6184998755        0.4663421247
 C         -4.5550596163       -1.8853340017        0.6771381792
 C         -5.4821747485       -0.9969729181        0.1546331120
 C         -5.0570534752        0.1309145310       -0.5606753382
 C         -3.7277955896        0.4069461544       -0.7778106975
 C         -2.7520644259       -0.4707089129       -0.2667095406
 C         -1.3414466167       -0.5336632418       -0.2736140295
 H          1.9492683819        5.1122796202        1.2114847580
 H          0.9096191850        5.5705121092        2.5606194731
 H          1.5631783700        3.9341340037        2.4658378666
 H         -0.8386748081        3.9927017390        1.7794928126
 H         -0.4479108010        5.1614159488        0.5181758541
 H          1.0624323223        3.4965914156       -0.5493062928
 H          0.6571425931        2.3252549689        0.7121968193
 H         -1.3145950632        3.5640647589       -1.2599334267
 H         -1.7368523624        2.4246354324        0.0238933097
 H         -1.4953309871        1.3626672679       -2.2433619843
 H          0.2046737158        1.8232427884       -2.2534992548
 H          2.2098873485        1.3471671489       -1.5300691360
 H          4.9397960943        0.8819608157       -1.3011393872
 H          6.5472824379       -0.7336808771       -0.3194178819
 H          5.7576166468       -2.6929151073        0.9171456653
 H          3.3532254273       -3.1299339500        1.2336960161
 H          0.5629275328       -3.0086479607        1.2251449258
 H         -2.1464523202       -3.1761455001        1.4068567597
 H         -4.8661862202       -2.7587712664        1.2315910557
 H         -6.5369909425       -1.1723691018        0.2970614850
 H         -5.8056590099        0.8043939219       -0.9537686884
 H         -3.4479182500        1.2896152646       -1.3291916116
