  89
 
 C         -5.8752744326       -3.0121544553       -0.7737890611
 C         -5.1209532906       -2.5030954077        0.4691267169
 C         -6.0932503314       -2.3483825454        1.6541066610
 C         -4.0619850889       -3.5243565717        0.8418794096
 C         -4.4407505366       -4.8211917289        1.1616996984
 C         -3.5190460865       -5.7918453066        1.5104854034
 C         -2.1745693209       -5.4672924084        1.5487786405
 C         -1.7697437095       -4.1865494804        1.2363711242
 C         -2.7001080002       -3.2069150958        0.8763526479
 N         -2.2616210200       -1.9293021151        0.5745263405
 C         -0.8660542987       -1.6550707061        0.5408047347
 C         -0.1243330409       -1.9636196939       -0.5944553375
 C          1.2160905435       -1.6389151350       -0.6516042776
 C          1.8336159024       -0.9873970448        0.4146496205
 C          3.2526325274       -0.6203767280        0.3108617328
 C          3.7796410964        0.5001781564        0.9507743110
 C          5.1441445952        0.7438806100        0.7888185135
 C          5.8263021177        1.8826142371        1.4174512549
 C          6.9840049280        2.3926251357        0.8308047633
 C          7.6456648621        3.4633630011        1.4005163776
 C          7.1653995107        4.0353260128        2.5681962763
 C          6.0224224055        3.5278165160        3.1647860713
 C          5.3540351206        2.4598153272        2.5948251726
 N          5.8926161189       -0.0556964780        0.0305921530
 C          5.3051326764       -1.0889360947       -0.5631583437
 C          6.1382722641       -1.9500492595       -1.4083395865
 C          7.5075124473       -1.7139546860       -1.5205240809
 C          8.2889872040       -2.5257457151       -2.3204202800
 C          7.7149977109       -3.5797877116       -3.0145483471
 C          6.3542337567       -3.8217683803       -2.9051591009
 C          5.5681758214       -3.0138602849       -2.1059626575
 N          4.0181857398       -1.4019198905       -0.4477416419
 C          1.0906426505       -0.7041847814        1.5589082600
 C         -0.2477619032       -1.0401353266        1.6239695493
 C         -3.1343285435       -0.9101408267        0.2241862188
 C         -2.6060611931        0.3479570317       -0.0655816728
 C         -3.4622327569        1.3654019112       -0.4342062604
 C         -4.8541453393        1.1545283734       -0.4986178728
 C         -5.3621265137       -0.1024773876       -0.2023526966
 C         -4.5211812799       -1.1432399122        0.1542954555
 C         -5.4397952440        2.4121895328       -0.8679835433
 C         -6.7425210230        2.8294385360       -1.1069332148
 C         -6.9627066466        4.1430976366       -1.4739517461
 C         -5.9018235419        5.0336694321       -1.6178099828
 C         -4.5954349006        4.6420210162       -1.3866876428
 C         -4.3694699201        3.3308766460       -0.9966764337
 N         -3.1763899702        2.6826969600       -0.7352674390
 C         -1.8949395807        3.2514049938       -0.7063227552
 C         -0.8405966756        2.6287988209       -1.3708559720
 C          0.4344073697        3.1590651303       -1.2981306579
 C          0.6674727373        4.3232004383       -0.5841447291
 C         -0.3834272154        4.9563063005        0.0596139449
 C         -1.6583242338        4.4225379790        0.0086955312
 H         -5.1802341007       -3.1429352917       -1.6015854104
 H         -6.6421751096       -2.3055669487       -1.0786863583
 H         -6.3527816151       -3.9672869188       -0.5732152976
 H         -6.5478610599       -3.3012926136        1.9105042135
 H         -5.5581000827       -1.9772219695        2.5266748190
 H         -6.8871015203       -1.6462943732        1.4149602217
 H         -5.4861201655       -5.0898576999        1.1390512786
 H         -3.8496251331       -6.7909229102        1.7522995295
 H         -1.4384314016       -6.2088581948        1.8230071346
 H         -0.7203917516       -3.9346812096        1.2714753584
 H         -0.6086825671       -2.4502575026       -1.4281522714
 H          1.8014188451       -1.8671329678       -1.5287591394
 H          3.1496548678        1.1694174327        1.5119947382
 H          7.3452463672        1.9372558539       -0.0785061230
 H          8.5388921621        3.8529101134        0.9345574803
 H          7.6832991190        4.8708265413        3.0156537336
 H          5.6513727851        3.9639379172        4.0808548385
 H          4.4769716948        2.0599827733        3.0819228451
 H          7.9402107286       -0.8929465168       -0.9702370983
 H          9.3497390639       -2.3388014479       -2.4030089665
 H          8.3279011616       -4.2127261871       -3.6396103323
 H          5.9064210110       -4.6439016639       -3.4442483154
 H          4.5087168194       -3.1917260546       -2.0065425757
 H          1.5617457197       -0.2357254240        2.4098670696
 H         -0.8267745247       -0.8175845526        2.5080928152
 H         -1.5465745921        0.5267463778        0.0073966046
 H         -6.4286874569       -0.2565341973       -0.2518475717
 H         -7.5653687104        2.1364834137       -1.0103717749
 H         -7.9698875120        4.4862502933       -1.6615696138
 H         -6.1024371078        6.0515257357       -1.9198403175
 H         -3.7783486339        5.3356868028       -1.5181056894
 H         -1.0277782125        1.7372182236       -1.9503593160
 H          1.2481153125        2.6634207765       -1.8080958028
 H          1.6640333107        4.7358214892       -0.5309792247
 H         -0.2075501043        5.8651047399        0.6163586703
 H         -2.4724600750        4.8992235836        0.5341985988
