42

N      3.667335   -2.665263   -1.636750
C      3.310049   -1.709770   -1.082608
C      2.841160   -0.542306   -0.400627
C      3.670257    0.334524    0.201616
C      5.133349    0.229411    0.280966
C      5.760141   -0.860631    0.896639
C      7.153282   -0.920177    0.975652
C      7.927935    0.112431    0.450349
C      7.311338    1.207521   -0.151761
C      5.918510    1.268427   -0.232713
C      1.389517   -0.260862   -0.394635
C      0.687282   -0.130005    0.812126
C     -0.687316    0.130006    0.812137
C     -1.389527    0.261101   -0.394613
C     -2.841186    0.542473   -0.400579
C     -3.310149    1.709994   -1.082416
N     -3.667488    2.665543   -1.636427
C     -3.670234   -0.334497    0.201527
C     -5.133330   -0.229475    0.280897
C     -5.918445   -1.268413   -0.233007
C     -7.311274   -1.207599   -0.152015
C     -7.927917   -0.112680    0.450360
C     -7.153309    0.919848    0.975883
C     -5.760166    0.860395    0.896826
C     -0.687267    0.131113   -1.600568
C      0.687291   -0.130601   -1.600578
H      3.271573    1.237680    0.661887
H      5.176115   -1.673794    1.321410
H      7.633561   -1.774132    1.446752
H      9.012200    0.063289    0.510496
H      7.915109    2.013791   -0.560395
H      5.454695    2.130162   -0.707495
H      1.201823   -0.234687    1.765807
H     -1.201881    0.234478    1.765826
H     -3.271501   -1.237691    0.661685
H     -5.454591   -2.130023   -0.707984
H     -7.915010   -2.013814   -0.560810
H     -9.012183   -0.063616    0.510550
H     -7.633624    1.773660    1.447200
H     -5.176172    1.673482    1.321779
H     -1.201206    0.226120   -2.556187
H      1.201254   -0.225412   -2.556204
