  60
 
 O          6.6000489324       -0.2274487919       -1.2739284402
 C          5.8003489944        0.6754147459       -1.2580981584
 O          6.1789529342        1.9544664404       -1.0961464373
 C          4.3400866584        0.5085252430       -1.4091281532
 C          3.8309696244       -0.7750023413       -1.5948253033
 C          2.4723203956       -0.9666875665       -1.7345597549
 C          1.5935177407        0.1126853339       -1.6920834332
 C          0.1153595016       -0.1128178184       -1.8184428412
 C         -0.6107439982       -0.1557845352       -0.4420057628
 C          0.1028004806       -1.2450881643        0.3417733377
 C          1.3102092340       -0.9872415997        0.9886497180
 C          2.0096883076       -1.9985279076        1.6165479002
 C          1.5195234946       -3.3009292021        1.5970181901
 C          2.2375807541       -4.4172027161        2.2484015843
 O          1.8768875546       -5.5680358267        2.2284868747
 O          3.3567626967       -4.0334425453        2.8818581608
 C          0.3258275591       -3.5708999008        0.9331693109
 C         -0.3684189035       -2.5543314629        0.3090331783
 C         -0.6272158847        1.2007982127        0.2521592506
 C         -0.4541335616        1.3216901478        1.6288058748
 C         -0.5344573918        2.5520785042        2.2492079115
 C         -0.8116225917        3.6980602959        1.5098674287
 C         -0.8798247240        4.9982582263        2.2087139592
 O         -0.7049493231        5.1509789984        3.3920385320
 O         -1.1586884523        6.0286021232        1.3930050790
 C         -1.0380012771        3.5820828809        0.1417692957
 C         -0.9554353610        2.3474251693       -0.4692013011
 C         -2.0954609270       -0.4765872370       -0.5888135154
 C         -2.7589300004       -0.5139842472       -1.8092297450
 C         -4.1171012222       -0.7689990884       -1.8713313251
 C         -4.8425534863       -0.9894055278       -0.7064983203
 C         -6.2944210333       -1.2653626303       -0.7286852085
 O         -6.9699427837       -1.4634144313        0.2502418631
 O         -6.8166069197       -1.2780458411       -1.9664526624
 C         -4.1858089142       -0.9499014028        0.5225662641
 C         -2.8337051647       -0.6936535416        0.5757580959
 C          2.1106852849        1.3934185012       -1.5207069413
 C          3.4691110094        1.5944717666       -1.3766329908
 H          7.1432711803        1.9979516428       -1.0032638176
 H          4.5184063676       -1.6063175275       -1.6243611162
 H          2.0842784794       -1.9650549197       -1.8756590619
 H         -0.3097780570        0.6737510747       -2.4404570871
 H         -0.0555394391       -1.0747342762       -2.3062799670
 H          1.7137580134        0.0138394319        1.0001802274
 H          2.9420945365       -1.7858294185        2.1145876695
 H          3.7861303138       -4.8049273178        3.2830085014
 H         -0.0387437803       -4.5865267747        0.9128681630
 H         -1.2864725757       -2.7832875503       -0.2115667329
 H         -0.2555936329        0.4486429291        2.2310175343
 H         -0.3886844105        2.6449460667        3.3145700284
 H         -1.1922027002        6.8500837479        1.9072948399
 H         -1.2842026007        4.4601536296       -0.4343692442
 H         -1.1684151657        2.2841351663       -1.5254834837
 H         -2.2290120704       -0.3524616053       -2.7340132786
 H         -4.6196949680       -0.7988645002       -2.8252886036
 H         -7.7670006902       -1.4642408196       -1.9159062101
 H         -4.7564950455       -1.1220862259        1.4220526746
 H         -2.3351359543       -0.6663719142        1.5326002253
 H          1.4433444180        2.2418333553       -1.4938711229
 H          3.8630285442        2.5892035422       -1.2399636531
