  68
 
 C          4.5071256189        4.2012916112       -0.6643067177
 C          3.0900803738        4.6302992349       -0.2517719251
 C          3.1200799636        5.2170568543        1.1691658797
 C          2.6250359096        5.7297624743       -1.2113365895
 C          2.1750754630        3.4200563981       -0.2644446713
 C          1.0468263490        3.3226058448       -1.0819956824
 C          0.2294723156        2.2177630365       -1.0406683434
 C          0.5095624460        1.1552359467       -0.1674459577
 C          1.6876489303        1.1989763785        0.6148209232
 C          2.4730968134        2.3265083627        0.5607569960
 C          1.9689686376       -0.0072006432        1.4878611154
 C          0.9911236887       -0.0032935997        2.6841210275
 C          3.3934735553       -0.0136348900        2.0446916431
 C          1.6772088837       -1.2102404952        0.6139138537
 C          2.4526128007       -2.3446933562        0.5593625561
 C          2.1452065927       -3.4349394032       -0.2667500020
 C          3.0491030912       -4.6535149383       -0.2541325092
 C          3.0749587448       -5.2399521974        1.1670126582
 C          4.4696250173       -4.2373422575       -0.6678004013
 C          2.5732720140       -5.7492218031       -1.2127157102
 C          1.0188015766       -3.3264417926       -1.0854276404
 C          0.2112592177       -2.2144329001       -1.0435855003
 C          0.4999271335       -1.1555078208       -0.1688036742
 N         -0.2659568096        0.0030896942       -0.1394727603
 C         -1.6419167348        0.0086158239       -0.1424481088
 C         -2.3925345243       -1.2138707746       -0.0802096037
 C         -3.7438629083       -1.2100479762       -0.2079886149
 C         -4.4497112279        0.0198998252       -0.3725560198
 C         -5.9111204298        0.0250184277       -0.4589056155
 F         -6.4243409269        1.1098311001       -1.0810093125
 F         -6.5615390874        0.0191910119        0.7686207666
 F         -6.4308468680       -1.0496131888       -1.0939248889
 C         -3.7342530752        1.2439336148       -0.2060419917
 C         -2.3828972404        1.2369079952       -0.0783875469
 H          4.4919023147        3.7597810759       -1.6588418797
 H          4.9205572309        3.4720878659        0.0266032089
 H          5.1671891211        5.0659338861       -0.6808814851
 H          2.1162156633        5.4980238386        1.4817255960
 H          3.5142924448        4.5032755119        1.8869132520
 H          3.7488083395        6.1046000041        1.1920498945
 H          3.3072776929        6.5753863807       -1.1509502206
 H          1.6298774888        6.0830261089       -0.9505230575
 H          2.6209185269        5.3770202376       -2.2402909227
 H          0.8019781440        4.1083058971       -1.7768865797
 H         -0.6025570244        2.1328056778       -1.7231683275
 H          3.3538069344        2.3759161483        1.1773458443
 H          1.1605156880        0.8805162611        3.2953191289
 H         -0.0451736815        0.0011205269        2.3561767141
 H          1.1530521603       -0.8886737317        3.2950632201
 H          4.1255998475       -0.0168145578        1.2404709582
 H          3.5458119173       -0.8888940160        2.6706223872
 H          3.5536607026        0.8600366487        2.6708871032
 H          3.3325850828       -2.4024199494        1.1762834282
 H          3.4759851718       -4.5295415200        1.8843097383
 H          3.6957854469       -6.1330424749        1.1898093971
 H          2.0688541412       -5.5118715878        1.4803265806
 H          5.1218829780       -5.1078569144       -0.6849915277
 H          4.8901357965       -3.5118698437        0.0228001072
 H          4.4575011701       -3.7956651938       -1.6623042602
 H          2.5728206700       -5.3974903811       -2.2420083997
 H          3.2469499113       -6.6016455940       -1.1514373356
 H          1.5745666532       -6.0922640152       -0.9517308174
 H          0.7677060462       -4.1091015603       -1.7815158864
 H         -0.6193945680       -2.1213501237       -1.7267142197
 H         -1.8815848702       -2.1414084092        0.1181027549
 H         -4.3089050617       -2.1282979500       -0.1560474893
 H         -4.2919385648        2.1665809614       -0.1525917744
 H         -1.8646583697        2.1600713961        0.1213808726
