  82
 
 C         -3.8643874580       -4.9270242211       -0.7199580390
 C         -2.5074765502       -4.7737695016       -0.4635306668
 C         -1.9421091785       -3.5172150424       -0.4528172883
 C         -2.7263984018       -2.3778999514       -0.6797982904
 C         -2.0788554949       -1.0883738051       -0.6792327356
 N         -0.8147242101       -0.9846655343       -1.0495726138
 C         -0.4835670214        0.3137195319       -1.0659979433
 C          0.8449600339        0.7268574623       -1.2731950549
 C          1.3763524380        1.9953076923       -0.9198522995
 C          2.7067404686        2.2658623928       -1.0896108765
 C          3.5890505079        1.3107107679       -1.6244619104
 O          4.8838309974        1.7057730693       -1.7108309916
 C          5.8851328621        0.8148873660       -2.1666094968
 C          6.2581335156       -0.3030171859       -1.1858717626
 C          6.6093262605        0.1975774164        0.2188781489
 C          5.3862994389        0.3591986561        1.1292350592
 C          4.5466760384       -0.8832044280        1.2960878642
 C          5.0827601990       -2.1633321161        1.2816252950
 C          4.3024991025       -3.3031027787        1.4602507744
 C          2.9434498327       -3.2118221646        1.6795636043
 C          2.3718392089       -1.9467976103        1.7195106990
 C          3.1719221313       -0.7971310693        1.5208803532
 N          2.3724387568        0.3166713337        1.6379180476
 C          1.0840980551       -0.0701771542        1.8918677208
 C         -0.0486183268        0.7027603357        2.1024031942
 C         -1.2309159874        0.0466522546        2.3861676569
 C         -1.2902053260       -1.3438749211        2.4566749818
 C         -0.1659480810       -2.1177550617        2.2471295090
 C          1.0340846864       -1.4820028676        1.9610944282
 C          3.0785495177        0.0569056123       -1.9914882782
 C          1.7535873179       -0.2273859490       -1.8045635715
 N         -1.6160033582        1.1079147342       -0.7710749701
 C         -1.6753600441        2.4998144125       -0.7913588918
 C         -2.2132656066        3.2128335872        0.2854035139
 C         -2.2705782161        4.5908788304        0.2408148134
 C         -1.8004067763        5.2810132106       -0.8680494936
 C         -1.2658058126        4.5775536773       -1.9388375121
 C         -1.2019446130        3.1995475646       -1.9077657244
 C         -2.6419628277        0.2307872872       -0.4527787867
 C         -3.9552719852        0.5809653582       -0.0583474043
 C         -4.6576181172       -0.2423870938        0.8593346943
 C         -5.9278926009        0.0781650645        1.2694461462
 C         -6.5655918400        1.2168020725        0.7816858920
 C         -5.9016574480        2.0291130131       -0.1342784031
 C         -4.6252311388        1.7311549117       -0.5454707100
 C         -4.0866149047       -2.5468153199       -0.9694419154
 C         -4.6432737538       -3.8105663443       -0.9843824008
 H         -4.3084614977       -5.9114571926       -0.7257567422
 H         -1.8940251376       -5.6421342535       -0.2712152699
 H         -0.8911204547       -3.3761439016       -0.2545478973
 H          0.7441626840        2.7393981594       -0.4652893731
 H          3.1142650419        3.2243766081       -0.8026783582
 H          6.7509010851        1.4653432690       -2.3238853023
 H          5.5960188535        0.3815291625       -3.1324610938
 H          7.1202599561       -0.8134992990       -1.6192160301
 H          5.4457130621       -1.0254660853       -1.1072738873
 H          7.1134988465        1.1635271601        0.1454362384
 H          7.3100607717       -0.4989753857        0.6806689393
 H          4.7593556426        1.1620257108        0.7390886844
 H          5.7354086980        0.6760291386        2.1186446515
 H          6.1428343768       -2.2922009757        1.1285683327
 H          4.7788317886       -4.2723612008        1.4322550434
 H          2.3395330719       -4.0944622854        1.8257213820
 H          2.6634231680        1.2648865719        1.4743495174
 H         -0.0056798350        1.7810813223        2.0494525924
 H         -2.1307072255        0.6186521244        2.5635341295
 H         -2.2317673484       -1.8211672382        2.6866486473
 H         -0.2183830134       -3.1940921309        2.3118423698
 H          3.7187477949       -0.6941738516       -2.4248127838
 H          1.3591403013       -1.1946498114       -2.0709538418
 H         -2.5724287717        2.6767092455        1.1503081541
 H         -2.6820907047        5.1329247359        1.0797501861
 H         -1.8515940002        6.3586551582       -0.8981485148
 H         -0.9043208473        5.1075053872       -2.8078766946
 H         -0.7950251684        2.6472762638       -2.7424692159
 H         -4.1566503031       -1.1075241318        1.2653155865
 H         -6.4337661611       -0.5548678119        1.9846296695
 H         -7.5641594840        1.4650268488        1.1072182892
 H         -6.3980564957        2.9019204417       -0.5345883487
 H         -4.1471681437        2.3471658802       -1.2914744484
 H         -4.6950620925       -1.6895279130       -1.2137556496
 H         -5.6932100660       -3.9267709786       -1.2115438296
