82
 xtb: 6.7.1 (edcfbbe)
C           -8.55998605704127        1.60792128991363        1.10408627594560
C           -7.20463529729835        0.97653830741620        0.78401652559766
C           -6.48935015524005        0.67926737659326        2.11918104613611
C           -7.33450511330894       -0.31353752854268       -0.00596284979451
C           -8.51661341648764       -1.01509759673384       -0.17694931464447
C           -8.55195977410101       -2.18177202034182       -0.92484150594700
C           -7.40297258647852       -2.65029113064197       -1.53999305582513
C           -6.21280491603822       -1.96623324781248       -1.38615981798836
C           -6.16775345094903       -0.81969063019414       -0.59673247792124
N           -4.98506522439537       -0.07427147657744       -0.46159510272778
C           -3.77472757974346       -0.62030849405460       -0.06740906101809
C           -3.65224618144364       -1.99078346309876        0.23515930236669
C           -2.45239492533000       -2.52012743907348        0.63058022377638
C           -1.28984100338004       -1.72850207001531        0.74179693927439
C           -0.04866257026888       -2.34112612261705        1.18666936210190
O           -0.09862118440862       -3.42423839086074        1.85898951785646
C            1.22392293514923       -1.72285123070749        0.89054234576054
C            2.34525753051772       -2.06193203357850        1.68095242847939
C            3.58142262840731       -1.52247379332810        1.43670722323433
C            3.76046592142329       -0.63818840175616        0.36826228433444
N            5.03904765424069       -0.06539126681322        0.11113795039354
C            6.01359400063135       -0.83825554456043       -0.48501146546217
C            5.71500252171733       -2.15662742481275       -0.86168909512859
C            6.66977738696475       -2.95878670548650       -1.44476962847034
C            7.94398469242678       -2.46046007273263       -1.67318916398357
C            8.23698165657098       -1.15456951448373       -1.32439012604885
C            7.29485898957140       -0.32067651739994       -0.73673125196638
C            7.66505326311710        1.10788010314044       -0.39897204599133
C            8.07992228305435        1.82843427196149       -1.69770375391367
C            8.84156309761747        1.09418197750012        0.59802549341218
C            6.50932267299487        1.85748504159972        0.22973845728664
C            6.67118135602888        3.18623931833477        0.59964904035272
C            5.65627119235746        3.90929915354782        1.20033727978579
C            4.44070285307729        3.29372008088556        1.45974441435728
C            4.24986946271789        1.97794451437584        1.10278907251977
C            5.26799901903505        1.24668235642231        0.47156007778568
C            2.67775634666062       -0.33297987926077       -0.46070062081030
C            1.43696622883476       -0.86584853527826       -0.20931587574828
C           -1.45192669784606       -0.33951715860035        0.56556530299940
C           -2.65231521616188        0.19635493191384        0.17608613186829
C           -5.19338245835418        1.30137535446371       -0.65028255447609
C           -4.36856088916956        2.04918192544691       -1.48702631118373
C           -4.62631586518706        3.39117454266684       -1.68893636627587
C           -5.71724086605225        3.98367993860507       -1.07459106502315
C           -6.56485189782357        3.22856662866793       -0.27928382623021
C           -6.32504811078808        1.88180874774428       -0.05955519437700
H           -9.15339061600763        0.95132500240724        1.69774704038983
H           -8.41937261504939        2.53956638000739        1.64772895727492
H           -9.10598234432751        1.84551367770829        0.16898020457973
H           -5.51766142630337        0.24170803166127        1.96083172865686
H           -7.09654396100271        0.02685585895515        2.71279091765633
H           -6.35095979977580        1.62970115563901        2.65801098812729
H           -9.42921279432950       -0.65397039634745        0.27488204496566
H           -9.48429308817384       -2.72241000308933       -1.01731232194750
H           -7.43567664157041       -3.55765145893130       -2.12142485397622
H           -5.32253834797639       -2.31342878966895       -1.87982881526639
H           -4.51484743949022       -2.63720630185222        0.20150997279846
H           -2.36872540157808       -3.56889074697185        0.88620009569044
H            2.19108173265499       -2.74875536397784        2.50857261202214
H            4.42614847264598       -1.77143429076653        2.07215212780872
H            4.71360623832983       -2.53426530559088       -0.70358624960340
H            6.40010204361906       -3.95465771145914       -1.76604371417695
H            8.67661832111958       -3.06131766636235       -2.18627353439171
H            9.21151672605376       -0.76381721868840       -1.56584429337308
H            8.35050304048617        2.87051523392969       -1.49244019050066
H            7.20995507159558        1.86851353133428       -2.39181471794241
H            8.88319830936938        1.34633036034668       -2.19508599407756
H            9.15291593288757        2.09823930022323        0.83400529704049
H            8.57361938072777        0.56299473584111        1.48162277683538
H            9.70388111492439        0.58280124217416        0.12701387742488
H            7.62348156331934        3.66818552865227        0.44665989370439
H            5.83716346208494        4.91945306281566        1.53977733058829
H            3.66849291668721        3.81268201269274        2.01551739014782
H            3.32359091534114        1.47974445497119        1.35558402109742
H            2.83062134087290        0.31842373290060       -1.30219667343554
H            0.62184105762233       -0.65557968765858       -0.87651209540026
H           -0.62909750665902        0.32539360368169        0.78814619127948
H           -2.74157629553093        1.26691472364041        0.09514233068769
H           -3.54138091502117        1.54642404945433       -2.00707614478452
H           -3.97394249018939        3.94566572543443       -2.37032182739137
H           -5.91155967142302        5.02207585808678       -1.27467412403255
H           -7.41447913170480        3.71151247931325        0.13105905655123
