  73
 
 C          2.9651680190        3.8973107514        1.1917679111
 C          1.8137127520        2.9552932102        1.0476692606
 C          0.7897983098        3.2136025282        0.1382298952
 C         -0.2711657532        2.3467208004       -0.0214091921
 C         -1.3570854607        2.6923679863       -0.9916706358
 C         -0.3152140557        1.1312415757        0.7024675785
 B         -1.3155525706       -0.0112678971        0.3189302879
 C         -0.8468458202       -1.4231467193        0.0215757124
 C         -1.7374732356       -2.5338247286        0.1360021160
 C         -1.3358635408       -3.8307756025        0.0993855717
 C          0.0356429051       -4.1471890483       -0.1132463347
 C          0.4631551572       -5.4709656817       -0.1914670658
 N          0.8195497653       -6.5678892912       -0.2323821389
 C          0.9407825029       -3.0923284754       -0.2913750873
 C          0.5316941052       -1.7784873777       -0.2674886354
 N          1.5100944257       -0.7995846730       -0.4712275693
 C          2.7043952628       -0.7152883405        0.2135985907
 C          3.1805568785       -1.4938944097        1.2609974978
 C          4.4135310156       -1.1713184775        1.7973874174
 C          5.1603939834       -0.1021856363        1.3099139532
 C          4.6935554148        0.6754114571        0.2640375408
 C          3.4610278387        0.3706226457       -0.2886537904
 C          2.6927954618        0.9352220943       -1.3663100363
 C          2.9225636251        1.9637505237       -2.2648888421
 C          1.9819381365        2.2018146736       -3.2513095338
 C          0.8427898033        1.4103720580       -3.3614753504
 C          0.5921894824        0.3809654606       -2.4731155154
 C          1.5086116434        0.1681468176       -1.4549081944
 C         -2.8754972078        0.3046303121        0.2569371278
 C         -3.5023428747        0.8948829612        1.3670495421
 C         -2.7386063379        1.1972337578        2.6213134973
 C         -4.8599876384        1.1681423970        1.3401383521
 C         -5.6399297924        0.8811913351        0.2283587686
 C         -7.1067417065        1.1891059638        0.2277373696
 C         -5.0200983898        0.3012532512       -0.8625877764
 C         -3.6593450673        0.0122131880       -0.8665602126
 C         -3.0975851593       -0.5611815314       -2.1361421816
 C          0.6507027518        0.9426960759        1.7193389375
 C          0.5496180433       -0.1804501751        2.7066013202
 C          1.7037685694        1.8312593561        1.8538417574
 H          3.2149289615        4.3464407044        0.2328439146
 H          3.8377192374        3.3801001156        1.5844614298
 H          2.7092108625        4.7026275051        1.8819849022
 H          0.8367770963        4.1114911165       -0.4624050470
 H         -1.0909419846        3.5748411870       -1.5688256361
 H         -2.2880404613        2.8897868598       -0.4612133556
 H         -1.5367513918        1.8659615755       -1.6733760653
 H         -2.7811286252       -2.3100962310        0.3055744283
 H         -2.0426464317       -4.6376200180        0.2247692664
 H          1.9738979883       -3.3192207426       -0.5189323484
 H          2.6104542838       -2.3256020904        1.6450983802
 H          4.8059352734       -1.7627549456        2.6110893849
 H          6.1194645951        0.1179169244        1.7545446745
 H          5.2756509126        1.5013511855       -0.1154786277
 H          3.8220092349        2.5571208130       -2.2014866899
 H          2.1415174841        2.9995281078       -3.9613358002
 H          0.1443781281        1.5994885432       -4.1630191138
 H         -0.2777470326       -0.2460346312       -2.5750219632
 H         -3.3831662072        1.6643806619        3.3625112294
 H         -2.3345557632        0.2785122703        3.0429808145
 H         -1.9055156058        1.8662733456        2.4132694181
 H         -5.3270190760        1.6061568299        2.2119106430
 H         -7.5479443859        0.9805567396       -0.7436090193
 H         -7.6191178053        0.5862450278        0.9772154725
 H         -7.2767843647        2.2369774850        0.4714526333
 H         -5.6010428218        0.0738458992       -1.7461458507
 H         -2.8797254115        0.2407522812       -2.8441697722
 H         -2.1858326836       -1.1195834736       -1.9504181781
 H         -3.8207919834       -1.2261375669       -2.6042678244
 H          0.0215405863        0.1698522984        3.5949331182
 H         -0.0008423387       -1.0256073907        2.3029091173
 H          1.5387680048       -0.5062721621        3.0211711250
 H          2.4586771984        1.6434022712        2.6052666407
