  34
 
 C         -2.3930331164       -3.5788581965        0.0466914003
 C         -1.0151387177       -3.6124825856       -0.0201080280
 C         -0.2861636750       -2.4319705460       -0.0406538941
 C         -0.9292357092       -1.2024312214        0.0059325085
 C         -2.3288938756       -1.1772768186        0.0721875921
 C         -3.0496818878       -2.3557831100        0.0920555567
 O         -3.0427803513       -0.0001283213        0.1202108634
 C         -2.3289702090        1.1770675274        0.0722074136
 C         -3.0498371998        2.3555244966        0.0920777921
 C         -2.3932710770        3.5786442362        0.0467200114
 C         -1.0153788515        3.6123633835       -0.0200792535
 C         -0.2863244860        2.4319008381       -0.0406288336
 C         -0.9293132449        1.2023174959        0.0059611906
 N         -0.2257845218       -0.0000346353       -0.0120232070
 C          1.1931789967        0.0000121669       -0.0679170355
 C          1.8183087792       -0.0001247131       -1.3400375016
 C          3.1776566508       -0.0000614762       -1.4713803800
 C          3.9555794297        0.0001639983       -0.3001334535
 N          5.2869683936        0.0003824818       -0.2012615939
 S          5.6870434747        0.0003784838        1.3540339173
 N          4.2112439916        0.0005786673        1.9874316139
 C          3.3202729241        0.0002981028        0.9926792106
 C          1.9201113467        0.0002018961        1.0949948929
 H         -2.9653910797       -4.4929562540        0.0633904175
 H         -0.4924748725       -4.5560333830       -0.0564822739
 H          0.7914746892       -2.4632814541       -0.0917472333
 H         -4.1256359532       -2.2976912895        0.1440879679
 H         -4.1257874137        2.2973565141        0.1441018768
 H         -2.9656903834        4.4927034722        0.0634184353
 H         -0.4927788420        4.5559496357       -0.0564575307
 H          0.7913108919        2.4632851823       -0.0917355474
 H          1.1848511775       -0.0002546453       -2.2145316906
 H          3.6605700811       -0.0000929310       -2.4351444328
 H          1.4429946407        0.0003350018        2.0621412283
