  69
 
 C         -7.9623830002       -3.9885790481       -0.0599728080
 C         -6.6584860571       -3.7560210074        0.3480655207
 C         -6.1337286755       -2.4771086484        0.3287688806
 C         -6.9023283870       -1.3994515639       -0.1116407284
 C         -8.2346825096       -1.6429962187       -0.4913857629
 C         -8.7524849920       -2.9280502190       -0.4705391026
 O         -9.0758415968       -0.6369296712       -0.8766664689
 C         -8.5805408777        0.6370647824       -0.8935957216
 C         -9.4439720618        1.6463865009       -1.2882161551
 C         -8.9966945758        2.9550132328       -1.3576882193
 C         -7.6773487487        3.2472888922       -1.0500343890
 C         -6.8095955277        2.2462855106       -0.6545976742
 C         -7.2483189662        0.9264994182       -0.5471537859
 N         -6.4066445930       -0.1035462762       -0.1499231197
 C         -5.0641673031        0.1618539176        0.2066409662
 C         -4.7728670685        0.9626115014        1.3226944689
 C         -3.4749406430        1.2163051195        1.6725210584
 C         -2.4055889816        0.6861266812        0.9103231153
 C         -1.0724400952        0.9547912189        1.2743051122
 N         -0.6554330020        1.6885016473        2.2999260227
 N          0.6598685766        1.6857258512        2.3003115689
 C          1.0744022963        0.9506228345        1.2746216251
 C          2.4066520810        0.6782134447        0.9105167421
 C          2.7130868381       -0.1164438231       -0.2206525354
 C          4.0140460995       -0.3777705079       -0.5587901940
 C          5.0643367304        0.1473939528        0.2068939766
 N          6.4061758872       -0.1203721764       -0.1489662004
 C          7.2560512084        0.9114505889       -0.5239250275
 C          6.8251774746        2.2352450002       -0.6134280837
 C          7.7011152070        3.2377906652       -0.9861214085
 C          9.0212004452        2.9434831388       -1.2887367630
 C          9.4608403031        1.6314808584       -1.2376420856
 C          8.5890528163        0.6205091803       -0.8661569476
 O          9.0771358707       -0.6562520683       -0.8679233799
 C          8.2277202361       -1.6640740617       -0.5064763322
 C          8.7382778380       -2.9522238468       -0.5057673341
 C          7.9401296763       -4.0154241261       -0.1184871068
 C          6.6355839188       -3.7825699781        0.2873364226
 C          6.1180957476       -2.5005805736        0.2880809551
 C          6.8945790599       -1.4195929985       -0.1299699601
 C          4.7744818212        0.9406622001        1.3288664431
 C          3.4772746230        1.1981068365        1.6781391620
 O          0.0000922285        0.4444332136        0.5668904339
 C         -2.7136482529       -0.1155805006       -0.2153304745
 C         -4.0152628916       -0.3744013146       -0.5529823548
 H         -8.3696430538       -4.9869559938       -0.0478426480
 H         -6.0426403990       -4.5733385146        0.6897114542
 H         -5.1237815386       -2.3009770298        0.6622931680
 H         -9.7771615990       -3.0712841220       -0.7744078829
 H        -10.4584637831        1.3816969916       -1.5403362464
 H         -9.6733439535        3.7372979417       -1.6624075659
 H         -7.3150488821        4.2609401147       -1.1214601902
 H         -5.7806588032        2.4785089916       -0.4320978841
 H         -5.5860798540        1.3593474012        1.9132565263
 H         -3.2332465461        1.8157757821        2.5357645742
 H          1.9018443978       -0.5065227868       -0.8171947393
 H          4.2427718242       -0.9744631919       -1.4304537437
 H          5.7959479367        2.4696780441       -0.3946367374
 H          7.3446859112        4.2543925764       -1.0437559440
 H          9.7042225245        3.7270016691       -1.5755365577
 H         10.4756506070        1.3653382746       -1.4869332620
 H          9.7638315694       -3.0956934829       -0.8065339894
 H          8.3416935808       -5.0161644518       -0.1221373722
 H          6.0134338834       -4.6022526015        0.6114402833
 H          5.1076521785       -2.3249124090        0.6202700022
 H          5.5884075654        1.3284027344        1.9244003147
 H          3.2369009249        1.7920987131        2.5455280682
 H         -1.9031813948       -0.5138908435       -0.8074620290
 H         -4.2455572706       -0.9779819571       -1.4194767051
