  112
 
 C         12.3960372306        2.4839995717        2.1352308441
 C         11.3719979041        1.6547992293        2.2974174451
 C         10.8014759015        0.7651560660        1.2935081426
 C         11.2062982240        0.7646080663       -0.0424034928
 C         10.6326926783       -0.0961818472       -0.9552452373
 C          9.6423108843       -0.9893035390       -0.5634027383
 C          9.0368848819       -1.9416165470       -1.5653831775
 O          7.7509495524       -2.4034736377       -1.2217917428
 C          6.7160227631       -1.5183149975       -1.2243056270
 C          6.8070523744       -0.1689159533       -1.5309384062
 C          5.6739521336        0.6411339333       -1.5324361385
 C          4.4218146559        0.1562997938       -1.2178000252
 C          4.3250655587       -1.1883669501       -0.8825308844
 C          5.4548912061       -2.0316623407       -0.8966298613
 C          4.9963506688       -3.3455902536       -0.5486961068
 C          5.6344600864       -4.5677681113       -0.3824960438
 C          4.8775096123       -5.6607382612       -0.0104635610
 C          3.5068766285       -5.5437672676        0.2093283140
 C          2.8510613796       -4.3377312706        0.0500410724
 C          3.6014369496       -3.2404619657       -0.3463660907
 N          3.2102006275       -1.9314283968       -0.5512124567
 C          1.9019761938       -1.4444464607       -0.4425327171
 C          0.8553288219       -2.0908168165       -1.0959520905
 C         -0.4353268819       -1.6195096462       -0.9827812486
 C         -0.7119946156       -0.4873073704       -0.2160078497
 N         -2.0235582264       -0.0138892502       -0.0986085416
 C         -2.2735780990        1.3606217940       -0.0704103393
 C         -3.2930797495        1.8806993904        0.7282461894
 C         -3.5482386559        3.2355784902        0.7459946746
 C         -2.7770715523        4.1082322759       -0.0177593612
 N         -3.0319660073        5.4858201414        0.0059527450
 C         -3.1553744895        6.2657322135        1.1384152285
 C         -3.0138658644        5.9146305894        2.4733828514
 C         -3.1659403022        6.9082548740        3.4212431343
 C         -3.4442275832        8.2241900172        3.0580557632
 C         -3.5631047056        8.5841106410        1.7307030428
 C         -3.4142064428        7.6030673444        0.7592449761
 C         -3.4519917427        7.6200051900       -0.6761081907
 C         -3.6771853498        8.6186675550       -1.6143637705
 C         -3.6655229395        8.2832323634       -2.9533486585
 C         -3.4474812798        6.9688518979       -3.3606250657
 C         -3.2208615590        5.9580872455       -2.4463844118
 C         -3.2083907294        6.2932744320       -1.0999405382
 C         -1.7505077488        3.5946712159       -0.8063815354
 C         -1.5084593286        2.2376439166       -0.8404919578
 C         -3.0827410731       -0.9230529228       -0.0125255450
 C         -2.9348933575       -2.1159935825        0.6960111865
 C         -3.9766612097       -3.0151700587        0.7800228386
 C         -5.1917111882       -2.7463451568        0.1546010251
 N         -6.2482898446       -3.6623956564        0.2365863513
 C         -7.5460603994       -3.3689096146        0.6051179898
 C         -8.0979325529       -2.1634133962        1.0144423179
 C         -9.4364077312       -2.1497514439        1.3566367515
 C        -10.2130105700       -3.3051900347        1.3034607767
 C         -9.6641790636       -4.5121038061        0.9192501325
 C         -8.3205434045       -4.5513594669        0.5707476378
 C         -7.4382001052       -5.6050144617        0.1545737773
 C         -7.6138647723       -6.9630211054       -0.0764489015
 C         -6.5318505929       -7.7071511414       -0.5018608270
 C         -5.2902636994       -7.1108106464       -0.7111519818
 C         -5.0906432360       -5.7620648265       -0.4879375563
 C         -6.1686193194       -5.0132207789       -0.0378645921
 C         -5.3429850056       -1.5568655670       -0.5537331386
 C         -4.3024752676       -0.6555965141       -0.6348257400
 C          0.3390891495        0.1611809615        0.4325016008
 C          1.6294199414       -0.3128438302        0.3222456180
 C          9.2348456706       -1.0000413569        0.7634489103
 C          9.8016185658       -0.1310598235        1.6739758651
 H         12.9266920260        2.5820474651        1.2037680107
 H         12.7486952068        3.1016759426        2.9433214315
 H         10.8920906618        1.6003258457        3.2673742240
 H         11.9699842802        1.4503449194       -0.3747190719
 H         10.9545986652       -0.0772931761       -1.9874993360
 H          9.6464652264       -2.8524609072       -1.6133119817
 H          9.0295532632       -1.4863260205       -2.5660771519
 H          7.7583361088        0.2780529269       -1.7709928988
 H          5.7880731871        1.6835257095       -1.7905844073
 H          3.5535870891        0.7957638775       -1.2417086067
 H          6.6983513033       -4.6454243481       -0.5402181379
 H          5.3518786483       -6.6218796013        0.1224037080
 H          2.9440495523       -6.4138518126        0.5144952605
 H          1.7914669363       -4.2534616345        0.2399856690
 H          1.0640315530       -2.9530877494       -1.7107768112
 H         -1.2403485748       -2.1205773303       -1.4996292987
 H         -3.8883390357        1.2122091402        1.3322981855
 H         -4.3521352412        3.6263738477        1.3512697438
 H         -2.7813894482        4.9011160980        2.7641308901
 H         -3.0633722627        6.6597601021        4.4674148532
 H         -3.5588825602        8.9712127896        3.8293683305
 H         -3.7634915601        9.6066571580        1.4482578779
 H         -3.8614553686        9.6342094618       -1.2977455669
 H         -3.8361731283        9.0451157578       -3.6993508239
 H         -3.4592892439        6.7339379169       -4.4148638442
 H         -3.0699580061        4.9395312280       -2.7712634900
 H         -1.1410968786        4.2672048127       -1.3908818813
 H         -0.7183814350        1.8464428773       -1.4640177765
 H         -1.9987923542       -2.3268254870        1.1913962400
 H         -3.8614743723       -3.9241133301        1.3508615990
 H         -7.5006812810       -1.2660041622        1.0751906391
 H         -9.8900715074       -1.2228910249        1.6757407361
 H        -11.2565235122       -3.2522940297        1.5761794689
 H        -10.2618871631       -5.4107421530        0.8927176094
 H         -8.5799806107       -7.4217087356        0.0709538251
 H         -6.6463688611       -8.7651841528       -0.6850174605
 H         -4.4658537078       -7.7158287754       -1.0589835281
 H         -4.1288981756       -5.3061990902       -0.6694917722
 H         -6.2745863681       -1.3533070578       -1.0596852020
 H         -4.4242880954        0.2596773463       -1.1947943780
 H          0.1342508981        1.0331186483        1.0358173657
 H          2.4328694128        0.1796738869        0.8484474556
 H          8.4652711653       -1.6898730647        1.0776672589
 H          9.4691175701       -0.1485242496        2.7023099892
