  60
 
 C         -2.3199718578       -2.9197022796        2.1877918738
 C         -0.9826873191       -2.7945049154        1.8578986909
 C         -0.5623521152       -1.7959027812        0.9812334359
 C          0.8581286011       -1.6512321193        0.6289409994
 C          1.6519288217       -2.7709417828        0.3675682214
 C          2.9724177262       -2.6157068356        0.0278635043
 C          3.5767615425       -1.3527717494       -0.0605636297
 C          4.9675775579       -1.1968529679       -0.4443340584
 C          5.7548384695       -2.2969447033       -0.8153129663
 C          7.0702659013       -2.1556783908       -1.1878089603
 C          7.6465952554       -0.8916931356       -1.2072646264
 C          6.8952653397        0.2039222550       -0.8540305462
 C          5.5530294020        0.0881428710       -0.4645898243
 C          4.7617657345        1.2524712759       -0.1050519715
 C          5.3229749435        2.5371908489       -0.0642426365
 C          4.5740527217        3.6482047528        0.2426522711
 C          3.2197944512        3.5085901427        0.5186506353
 C          2.6483297604        2.2585923820        0.5018917712
 C          3.3917357670        1.1071858920        0.2046303300
 C          2.7911396186       -0.2159110617        0.2294136756
 C          1.4431337215       -0.4006390511        0.5573318009
 C         -1.5105123147       -0.9352422221        0.4377026381
 C         -2.8534552432       -1.0591560519        0.7720317608
 N         -3.7942928084       -0.1742683495        0.2199912785
 C         -4.9635151434       -0.5286258349       -0.4218981295
 C         -5.4671292989       -1.7896382016       -0.7099354461
 C         -6.6668222953       -1.8659520953       -1.3913066107
 C         -7.3521949264       -0.7193001497       -1.7889584317
 C         -6.8444673697        0.5376700459       -1.5267216183
 C         -5.6395644818        0.6406118886       -0.8428271742
 C         -4.8304208553        1.7516540212       -0.4259318704
 C         -4.9664864086        3.1300274652       -0.5348955071
 C         -3.9871677406        3.9376249972        0.0085058145
 C         -2.8905205317        3.3880174377        0.6702847883
 C         -2.7339237890        2.0206987937        0.7923947916
 C         -3.7009073950        1.2026286794        0.2246364128
 C         -3.2596570251       -2.0551035001        1.6552748813
 H         -2.6342009308       -3.6908433946        2.8758822182
 H         -0.2548020808       -3.4601921693        2.2969164117
 H          1.2183619102       -3.7592041035        0.4107561873
 H          3.5472462887       -3.5055195187       -0.1702975782
 H          5.3316804508       -3.2881195967       -0.8227911336
 H          7.6502541570       -3.0227215064       -1.4689662514
 H          8.6780261979       -0.7681965364       -1.5038012068
 H          7.3673715313        1.1719955983       -0.8916687992
 H          6.3711552122        2.6775121159       -0.2716990605
 H          5.0372056908        4.6239294633        0.2665102857
 H          2.6190632592        4.3757579095        0.7517061858
 H          1.5973744895        2.1836912296        0.7280853505
 H          0.8246992348        0.4505729117        0.7892259079
 H         -1.2100481448       -0.1814947638       -0.2752223059
 H         -4.9360572108       -2.6837483915       -0.4197648943
 H         -7.0813173139       -2.8362127659       -1.6240752779
 H         -8.2892219206       -0.8206957476       -2.3168608970
 H         -7.3686392827        1.4256264350       -1.8478767328
 H         -5.8245848329        3.5573741000       -1.0322341214
 H         -4.0728779245        5.0117409556       -0.0691622942
 H         -2.1494942015        4.0462289931        1.1006057551
 H         -1.8938032968        1.6024865212        1.3260857648
 H         -4.3010796990       -2.1374333092        1.9276249182
