  74
 
 C          9.2800214597       -0.8239292457        1.9693100335
 C          9.1264232906        0.6018962448        1.4334935492
 C          8.8474182878        1.5832804344        2.5745083055
 C          8.0381460271        0.6665272654        0.3892200881
 C          8.3324300314        1.0255398837       -0.9181218045
 C          7.3411853827        1.0810914258       -1.8905099104
 C          6.0286536178        0.7727213476       -1.5574232158
 O          5.0907086285        0.8492362323       -2.5376820742
 C          3.8090635288        0.5198414853       -2.2166852657
 C          3.3760323083        0.1387148221       -0.9666198414
 C          1.9913495480       -0.2676607820       -0.7729707713
 C          1.3393224812       -0.0763819664        0.4527423360
 C          0.0269167322       -0.4485162642        0.6301867142
 C         -0.6754211509       -1.0590382075       -0.4114946352
 N         -2.0177260473       -1.4694137477       -0.2225600483
 C         -2.3004128356       -2.8206994411       -0.2013016563
 C         -1.2564630708       -3.7561426733       -0.3136563381
 C         -1.5167607516       -5.1060351563       -0.3251989924
 C         -2.8246905562       -5.5596595967       -0.2079634395
 C         -3.8498872425       -4.6462483321       -0.0440601808
 C         -3.6195864022       -3.2771800984       -0.0259471198
 C         -4.7708059510       -2.3291530742        0.2136559591
 C         -5.3885129951       -2.6590021467        1.5880555440
 C         -5.8192802530       -2.5268659434       -0.9004391317
 C         -4.3352318260       -0.8793509051        0.2055926799
 C         -5.2845797884        0.1016351563        0.4085627400
 C         -4.9310814211        1.4524013571        0.3512830843
 C         -3.5885179913        1.7988334406        0.0508111099
 C         -2.6233588720        0.8529644543       -0.1549567239
 C         -2.9883482562       -0.5121705409       -0.0444996675
 O         -3.4249703950        3.1494312102       -0.0106884988
 C         -4.6539930440        3.6928433724        0.2519054597
 C         -4.9632686830        5.0341587909        0.2942693805
 C         -6.2827688519        5.3747984045        0.5775110490
 C         -7.2517397385        4.3995011244        0.8078692080
 C         -6.9442412962        3.0558944456        0.7654307856
 C         -5.6251627661        2.6868463991        0.4827006283
 C         -0.0357683005       -1.2771458741       -1.6329551943
 C          1.2686228680       -0.8797189350       -1.8110292009
 C          4.3204514094        0.0899669861        0.1279531030
 O          4.0313661683       -0.2321963730        1.3056867787
 C          5.7033579518        0.4053603634       -0.2446778022
 C          6.7196628253        0.3612521437        0.7103155005
 H          8.3680778213       -1.1473266161        2.4652710104
 H          9.4897263077       -1.5137489266        1.1542115495
 H         10.0982552309       -0.8710680828        2.6847663542
 H         10.0702264796        0.8911291646        0.9571780824
 H          8.7449316744        2.5950968604        2.1873070348
 H          9.6644062635        1.5663264812        3.2928065852
 H          7.9278637887        1.3202023154        3.0915559246
 H          9.3486169782        1.2679919179       -1.1933441232
 H          7.5684144334        1.3657476574       -2.9060793892
 H          3.1523020210        0.6576019901       -3.0590294253
 H          1.8885884475        0.3578990487        1.2730578376
 H         -0.4610088519       -0.2925366902        1.5810342870
 H         -0.2371409169       -3.4122686763       -0.3800914725
 H         -0.7010762940       -5.8065672545       -0.4172120462
 H         -3.0386995634       -6.6170241175       -0.2220710290
 H         -4.8551601060       -5.0169257322        0.0775065416
 H         -6.2217721901       -1.9977250899        1.8033496106
 H         -4.6413669294       -2.5376014196        2.3698916829
 H         -5.7492594906       -3.6825324244        1.6124880010
 H         -5.3864859352       -2.2754167039       -1.8666237551
 H         -6.6819974290       -1.8897482150       -0.7338930237
 H         -6.1570313609       -3.5580389748       -0.9318214280
 H         -6.3122636626       -0.1550778089        0.6022975725
 H         -1.6177448184        1.1438578994       -0.4042803440
 H         -4.2101713040        5.7848743049        0.1150531588
 H         -6.5584347705        6.4174108388        0.6179966210
 H         -8.2638305321        4.7080770320        1.0240619787
 H         -7.6959196693        2.3033197094        0.9444862899
 H         -0.5791999446       -1.7469502759       -2.4395835120
 H          1.7514042372       -1.0568345666       -2.7592029906
 H          6.4362131982        0.0750180475        1.7119862046
