  108
 
 O         -0.0198046792        4.8451222926        0.5607501336
 C         -0.0176902601        3.6364027748        0.3876380864
 C          1.2475862297        2.8724163924        0.2865347507
 C          1.3446756560        1.5457219386        0.7076489384
 C          2.5550418073        0.8841876598        0.6460673446
 C          3.6860977486        1.5338712374        0.1583138350
 N          4.9271569107        0.8510839054        0.0986639097
 C          5.1053112850       -0.1495806408       -0.8493586997
 C          4.0910306307       -0.4466851445       -1.7645204444
 C          4.2550399686       -1.4401223408       -2.7083492913
 C          5.4384511880       -2.1559995810       -2.7708557017
 C          6.4553789594       -1.8494981852       -1.8864252312
 C          6.3087526538       -0.8544551769       -0.9311785264
 C          7.4810956090       -0.5589884177       -0.0184475498
 C          8.6689812875       -0.1594341698       -0.8731309450
 C          8.5812648954        0.9599119532       -1.6909352183
 C          9.6443054520        1.3551407482       -2.4797675213
 C         10.8235651129        0.6264261410       -2.4599989914
 C         10.9308609934       -0.4891049454       -1.6547984978
 C          9.8561262405       -0.8834315852       -0.8612437542
 O         10.0509667763       -2.0002208128       -0.0952964514
 C          9.0306749966       -2.4393234715        0.7033812129
 C          9.2893816558       -3.5827986352        1.4556193056
 C          8.3176320780       -4.0967510745        2.2897629255
 C          7.0820286133       -3.4744332686        2.3787565125
 C          6.8304667613       -2.3405558678        1.6307541611
 C          7.7950263737       -1.8069811993        0.7855941490
 C          7.1794622282        0.5671507063        0.9493750871
 C          8.1705379875        0.9470892243        1.8423532074
 C          7.9554352738        1.9401689325        2.7791740746
 C          6.7151109338        2.5527155153        2.8360213886
 C          5.7171417806        2.1885831634        1.9550479743
 C          5.9377917887        1.2065978577        0.9846010381
 C          3.5956343231        2.8597789921       -0.2589428147
 C          2.3887311797        3.5235952692       -0.1840300060
 C         -1.2843943358        2.8702009981        0.2821808443
 C         -1.4196187497        1.7909057712       -0.5902030800
 C         -2.6234955013        1.1191240547       -0.6817496864
 C         -3.7026386444        1.5086038017        0.1057878302
 N         -4.9329421291        0.8020132305        0.0283165058
 C         -5.2589423640       -0.0925925194        1.0383732216
 C         -4.3663916031       -0.3278738213        2.0882423904
 C         -4.6784752278       -1.2146358700        3.0986330939
 C         -5.8848396527       -1.8938030638        3.0836885377
 C         -6.7638343509       -1.6793207376        2.0385482935
 C         -6.4679359200       -0.7924284920        1.0141703465
 C         -7.4741818427       -0.6249410560       -0.1070217963
 C         -8.7731253410       -0.1123525101        0.4865183391
 C         -8.7969347156        1.1196757227        1.1275605777
 C         -9.9592226107        1.6130720809        1.6880561301
 C        -11.1277304225        0.8708133819        1.6131186750
 C        -11.1258130465       -0.3547975035        0.9789606648
 C         -9.9513348927       -0.8475127141        0.4149667989
 O        -10.0423577437       -2.0689137046       -0.1947359518
 C         -8.9243045101       -2.6014093169       -0.7764262688
 C         -9.0850578984       -3.8392356404       -1.3946774106
 C         -8.0104204058       -4.4515078821       -2.0066735749
 C         -6.7690940031       -3.8342079647       -2.0056561738
 C         -6.6150416540       -2.6061962716       -1.3917762671
 C         -7.6839001255       -1.9729226022       -0.7706013651
 C         -7.0003144708        0.3619033309       -1.1549548675
 C         -7.8215701843        0.6101876280       -2.2445790928
 C         -7.4637283401        1.5157638909       -3.2258728343
 C         -6.2640426302        2.1969372214       -3.1082941542
 C         -5.4329074479        1.9626749052       -2.0317280792
 C         -5.7798860877        1.0334539604       -1.0467465648
 C         -3.5767709242        2.5934106871        0.9681761808
 C         -2.3793965277        3.2761941514        1.0436876669
 H          0.4800772552        1.0424038182        1.1122836861
 H          2.6343214673       -0.1402166845        0.9781416489
 H          3.1685449448        0.1120833575       -1.7405351425
 H          3.4536612316       -1.6514257697       -3.4008457325
 H          5.5723303390       -2.9358454841       -3.5047861141
 H          7.3905558205       -2.3897868499       -1.9351482613
 H          7.6591729881        1.5226958604       -1.7022493726
 H          9.5553071596        2.2284916092       -3.1077729532
 H         11.6604711855        0.9268302223       -3.0722049486
 H         11.8365859311       -1.0750370308       -1.6199355349
 H         10.2598305368       -4.0466228362        1.3666896863
 H          8.5250551496       -4.9828500496        2.8704698730
 H          6.3184801654       -3.8724231123        3.0295871262
 H          5.8705449333       -1.8497274021        1.6969848799
 H          9.1283398442        0.4474064795        1.8001634302
 H          8.7415071105        2.2232865260        3.4622437955
 H          6.5183084529        3.3174854332        3.5727953308
 H          4.7529118194        2.6677928373        2.0239643121
 H          4.4757884613        3.3620962738       -0.6315428930
 H          2.3046919962        4.5535403032       -0.4982032274
 H         -0.5889024000        1.4920495914       -1.2112598220
 H         -2.7357262904        0.2885910508       -1.3625967734
 H         -3.4190124548        0.1882377627        2.1096452973
 H         -3.9728545664       -1.3759317967        3.9002206193
 H         -6.1363315024       -2.5866173461        3.8720130602
 H         -7.7042156476       -2.2119728761        2.0109130616
 H         -7.8833812602        1.6935161241        1.1818446219
 H         -9.9552996890        2.5728234571        2.1819807861
 H        -12.0414009083        1.2465808268        2.0483610210
 H        -12.0208747332       -0.9533158202        0.9051857598
 H        -10.0622704244       -4.2971126971       -1.3801414828
 H         -8.1420564112       -5.4109177432       -2.4837308255
 H         -5.9254555113       -4.3096042251       -2.4824623172
 H         -5.6508821068       -2.1191226829       -1.3873099113
 H         -8.7616749735        0.0814082732       -2.3189254728
 H         -8.1168165909        1.6927959542       -4.0665907462
 H         -5.9718425833        2.9186203925       -3.8567791415
 H         -4.5061701181        2.5093720592       -1.9482005259
 H         -4.4194318913        2.8954307019        1.5718542318
 H         -2.2704948650        4.1271081587        1.6998166513
