  83
 
 O          0.1707703821       -2.8041167861       -2.1130639459
 P          0.5396063877       -2.4668981982       -0.7322588021
 C         -0.8566672111       -2.4100203022        0.4352429917
 C         -0.7930086378       -1.7951388566        1.6778017331
 C         -1.8708977798       -1.8772369976        2.5389910359
 C         -3.0000381445       -2.5939912580        2.1756469451
 C         -3.0565628513       -3.2239975821        0.9430548617
 C         -1.9869745771       -3.1263073998        0.0710370064
 C          1.6015651504       -3.7421956365        0.0229583962
 C          1.8163123221       -4.8964508668       -0.7155557081
 C          2.5821201270       -5.9235353204       -0.1924697085
 C          3.1299293260       -5.7970835803        1.0728764777
 C          2.9128808669       -4.6453054120        1.8141777382
 C          2.1481117756       -3.6185009415        1.2941306169
 C          1.5183098765       -0.9265512573       -0.5623566497
 C          2.8723646272       -1.0781646164       -0.6885423334
 C          3.7397171410        0.0245893740       -0.5488927440
 N          5.0606215076       -0.1423862498       -0.6730935102
 C          5.8300418591        0.9192259896       -0.5177988240
 C          5.2645860353        2.2147370428       -0.2149634449
 N          3.9618667213        2.3799896643       -0.0843291776
 C          3.1782491113        1.3059574959       -0.2500246833
 C          1.7808469139        1.4358623967       -0.1488897375
 C          0.9500977232        0.3548478653       -0.3245340758
 C         -0.5026300213        0.5400421128       -0.2898828075
 C         -1.3088010172       -0.0003214329       -1.2898532351
 C         -2.6689332647        0.2230535376       -1.2962499806
 C         -3.2710661324        0.9785681919       -0.2880013264
 N         -4.6417862783        1.2269122606       -0.2969734542
 C         -5.5361894499        0.2895882838       -0.8304404757
 C         -6.6481821650        0.7103659408       -1.5589900071
 C         -7.5328732479       -0.2171315293       -2.0740836732
 C         -7.3208977063       -1.5722905520       -1.8806813483
 C         -6.2151734926       -1.9940635776       -1.1608162713
 C         -5.3299267266       -1.0745639541       -0.6330799532
 C         -5.1412775946        2.4392185102        0.2006991215
 C         -4.4684173466        3.6371725206       -0.0365388488
 C         -4.9707618175        4.8258942721        0.4561649579
 C         -6.1505574738        4.8423008417        1.1820864775
 C         -6.8260418013        3.6555527858        1.4150498652
 C         -6.3272491857        2.4607512291        0.9334815989
 C         -2.4655319628        1.5006771468        0.7273731775
 C         -1.1035729375        1.2988498443        0.7133327084
 C          6.1556579302        3.3067257505       -0.0591734806
 S          5.6808038263        4.9305678044        0.3036511945
 C          7.3282018150        5.4326827440        0.2827394392
 C          8.1963152730        4.4255992864        0.0150093454
 C          7.5369156664        3.1873218424       -0.1859639635
 C          8.0945660059        1.9084849684       -0.4851808513
 C          9.4527285671        1.5433969057       -0.6602026169
 C          9.5983217491        0.2235678715       -0.9363068940
 S          8.1051411960       -0.6335711257       -0.9969166675
 C          7.2391862427        0.8209041335       -0.6399117319
 H          0.0884746861       -1.2391711647        1.9628826802
 H         -1.8302662132       -1.3859536151        3.5001936228
 H         -3.8375971038       -2.6603182820        2.8546481653
 H         -3.9317956201       -3.7936950135        0.6661648229
 H         -2.0124779765       -3.5934046905       -0.9031724025
 H          1.3811037455       -4.9663909161       -1.7021626167
 H          2.7525351014       -6.8202009241       -0.7701129348
 H          3.7290838377       -6.5959670877        1.4846842437
 H          3.3433065287       -4.5495015806        2.8004467614
 H          1.9831789741       -2.7180006477        1.8675256105
 H          3.3080450059       -2.0476285890       -0.8876649058
 H          1.3777279408        2.4199639533        0.0366370654
 H         -0.8576457232       -0.5577807093       -2.0963177330
 H         -3.2737969714       -0.1756928245       -2.0966232955
 H         -6.8103483204        1.7661052872       -1.7202965691
 H         -8.3892599331        0.1212408853       -2.6386010016
 H         -8.0121069505       -2.2940219160       -2.2886721922
 H         -6.0443170459       -3.0488237406       -1.0028791373
 H         -4.4731006466       -1.4031219777       -0.0639300273
 H         -3.5547009597        3.6277348441       -0.6125468201
 H         -4.4415510917        5.7474941333        0.2633940153
 H         -6.5415872086        5.7737317683        1.5623845330
 H         -7.7449096895        3.6585686863        1.9827575926
 H         -6.8511462388        1.5348223926        1.1210457694
 H         -2.9189268205        2.0702499471        1.5252041158
 H         -0.4958437709        1.7093503959        1.5068062438
 H          7.5596090159        6.4623841086        0.4732409742
 H          9.2622074531        4.5520445001       -0.0388229332
 H         10.2730940087        2.2334057097       -0.5833748051
 H         10.5111926840       -0.3110061130       -1.1123225992
