  78
 
 C         -3.5121526516        1.7170722631       -1.9799283604
 C         -4.8304561904        1.7447592536       -1.5621873035
 C         -5.3432676410        0.6906094946       -0.7964897041
 C         -6.7300256214        0.7441144855       -0.3742590795
 N         -7.5086678659        1.7853436415       -0.5406095087
 C         -8.7163618985        1.4497392347        0.0018897033
 C         -9.8971223625        2.1814691756        0.1050068188
 C        -10.9728743957        1.5758908223        0.7179054922
 C        -10.8969305864        0.2739674079        1.2221398227
 C         -9.7381265068       -0.4715766498        1.1311350585
 C         -8.6520168570        0.1305003364        0.5172302240
 N         -7.3738958362       -0.2887140794        0.2621658312
 C         -4.5098231919       -0.3641622418       -0.4498086275
 C         -3.1650746953       -0.3774680362       -0.8361638796
 C         -2.3339535993       -1.4789889284       -0.4209862372
 N         -3.0090936317       -2.7186734653       -0.2989118814
 N         -2.2998244113       -3.6988666220       -0.0552729342
 N         -1.0955960448       -3.8433356175        0.1385881235
 C         -0.2947203924       -2.6846806222        0.1475800813
 C          1.1038611097       -2.8972437080        0.3977722179
 C          1.7018391796       -4.1020024463       -0.0131751616
 C          3.0677614505       -4.2689832007        0.0622237118
 C          3.8843730566       -3.2409416376        0.5092293743
 C          3.3052438085       -2.0577941329        0.9743695922
 C          4.0857621384       -0.9063362184        1.3815570606
 N          3.5713598284        0.1852769491        1.8918036862
 C          4.6120587956        1.0578417442        2.0482374698
 C          4.6306976042        2.3616904314        2.5353835155
 C          5.8431458629        3.0192449202        2.5590756171
 C          7.0191332069        2.4083073386        2.1163492578
 C          7.0253117224        1.1147649236        1.6318500473
 C          5.8111019288        0.4503545948        1.6015241640
 N          5.4420943324       -0.8043347500        1.1953744095
 C          1.9220604254       -1.9245315133        0.9836334802
 C         -0.9650300346       -1.4808054902       -0.1553534827
 C         -0.2210248479       -0.2020817005       -0.1221131117
 C         -0.6785962087        0.8309563298        0.6915819931
 C          0.0637008270        1.9927921892        0.8131401084
 C          1.2886087754        2.1123264883        0.1852308052
 C          1.7684819377        1.0738777447       -0.6131772240
 C          3.1149861153        1.0600898387       -1.1480043300
 N          3.6245652787        0.0554313414       -1.8165775766
 C          4.9371771116        0.3708721014       -2.0336170652
 C          5.9455928636       -0.3474185630       -2.6702595706
 C          7.2022407754        0.2187601850       -2.7162515161
 C          7.4664986790        1.4710224034       -2.1544221945
 C          6.4817996489        2.2025457912       -1.5205194605
 C          5.2191110357        1.6367310220       -1.4641633329
 N          4.0333683395        2.0551476102       -0.9228673617
 C          0.9768558358       -0.0577004323       -0.8071018098
 C         -2.6805961561        0.6697147704       -1.6352530760
 H         -3.1270853445        2.5191125405       -2.5918932060
 H         -5.4889757237        2.5570207953       -1.8232014833
 H         -9.9540320008        3.1860155403       -0.2834254010
 H        -11.9026301053        2.1169975269        0.8147494735
 H        -11.7674488625       -0.1565697427        1.6945174956
 H         -9.6802814618       -1.4767433459        1.5214727033
 H         -6.9910160284       -1.1941243903        0.4765198556
 H         -4.8649991561       -1.1902894629        0.1471589816
 H          1.0734859328       -4.8839900591       -0.4109497017
 H          3.5111914056       -5.1993681590       -0.2604812932
 H          4.9555490999       -3.3753275258        0.5117990812
 H          3.7221690022        2.8278417024        2.8840715235
 H          5.8907760744        4.0321515074        2.9316421195
 H          7.9449077081        2.9624668938        2.1554594979
 H          7.9340059238        0.6444067010        1.2880650507
 H          6.0407244135       -1.4903329651        0.7696659650
 H          1.5112123507       -1.0407441972        1.4391134492
 H         -1.6020319116        0.7178794194        1.2385705746
 H         -0.3037618360        2.7959828902        1.4334118297
 H          1.8729047303        3.0069579599        0.3365379995
 H          5.7383592644       -1.3127321385       -3.1051142648
 H          8.0072239854       -0.3146507296       -3.2002365337
 H          8.4665496074        1.8732973591       -2.2169714381
 H          6.6860721084        3.1674641334       -1.0822600677
 H          3.8960193775        2.8860644150       -0.3743975967
 H          1.3479753970       -0.8336469470       -1.4574531293
 H         -1.6628756906        0.6471122127       -1.9912279153
