  103
 
 N         -2.1842645234       -3.3068357013       -2.3067329341
 C         -1.8418048240       -2.4619416180       -1.5948590543
 C         -1.4369592220       -1.4620319015       -0.7229320627
 C         -2.3379800865       -0.4128859939       -0.3480912927
 N         -3.6694144154       -0.4788540770       -0.7786790902
 C         -4.5809807558       -1.4551174373       -0.4320365744
 C         -4.3809865379       -2.6501838656        0.2443008176
 C         -5.4859688812       -3.4377752608        0.5033187534
 C         -6.7632709821       -3.0449325073        0.1134207028
 C         -6.9712410016       -1.8458371732       -0.5445432227
 C         -5.8767113505       -1.0430087017       -0.8213493221
 C         -5.7262039216        0.2425242229       -1.4495800248
 C         -6.6118908923        1.1402848140       -2.0229673648
 C         -6.1096136652        2.3087677155       -2.5692647423
 C         -4.7424363684        2.5664040470       -2.5829496433
 C         -3.8403802936        1.6830692538       -2.0202957504
 C         -4.3458737229        0.5415284142       -1.4159295298
 C         -1.8986643950        0.6698657496        0.3865017314
 N         -2.8003584239        1.6648948064        0.7847574435
 C         -2.7412546886        2.9961890202        0.4262058434
 C         -1.7371067418        3.6892785476       -0.2347127166
 C         -1.9502871589        5.0257020014       -0.5121337643
 C         -3.1373109818        5.6593996070       -0.1556630973
 C         -4.1498680403        4.9687643793        0.4859708681
 C         -3.9552139551        3.6292471800        0.7808565507
 C         -4.7764326687        2.6229393073        1.3996989016
 C         -6.0506029836        2.6249042129        1.9434654448
 C         -6.5392505459        1.4505684941        2.4895952381
 C         -5.7600416808        0.2987304144        2.5324244786
 C         -4.4847509227        0.2751418778        1.9998033003
 C         -4.0161783433        1.4322498293        1.3953089889
 C         -0.5283157698        0.7758887096        0.7913255587
 C         -0.1195413424        1.7806013026        1.6552251829
 N          0.2319705361        2.6299221865        2.3577581044
 C          0.3693730229       -0.2762604285        0.4218383309
 N          1.7010534676       -0.2237962469        0.8592947037
 C          2.3572018227       -1.2666473399        1.4837398382
 C          1.8284829962       -2.3891490715        2.1027979001
 C          2.7148058528       -3.2998344336        2.6465118042
 C          4.0900763220       -3.0898810547        2.5966568030
 C          4.6200310867       -1.9437821848        2.0320039925
 C          3.7477355310       -1.0185066065        1.4797816666
 C          3.9218717004        0.2537563096        0.8418305072
 C          5.0197585859        1.0249411394        0.4981753121
 S          6.6954008125        0.6455980881        0.7837161505
 C          7.1870863419        2.1412325630        0.0145038247
 C          8.4900603126        2.5782093972       -0.1460648502
 C          8.7050520308        3.7899333537       -0.7761837590
 C          7.6346283888        4.5504564937       -1.2374420550
 C          6.3363653407        4.1128651374       -1.0771137778
 C          6.0925886729        2.8951104478       -0.4452256100
 C          4.8380687841        2.2494388557       -0.1718563985
 C          3.5488534745        2.6837468465       -0.4996965170
 C          2.4452423624        1.9260030432       -0.1834881422
 C          2.6333411861        0.7183977599        0.4885486727
 C         -0.0673095312       -1.3551711732       -0.3208905059
 N          0.8423690463       -2.3405443726       -0.7271308705
 C          2.0640868188       -2.0835058663       -1.3175634355
 C          2.5143402062       -0.9202423507       -1.9241161961
 C          3.8044790428       -0.9115313797       -2.4216625861
 C          4.6159439004       -2.0384392204       -2.3423434597
 C          4.1444242759       -3.2225298274       -1.8015094090
 C          2.8554639078       -3.2532448854       -1.2948512989
 C          2.0454298709       -4.2760682565       -0.6882546478
 C          2.2669580231       -5.6087498880       -0.3819909033
 C          1.2580658138       -6.3212858598        0.2411042396
 C          0.0476826818       -5.7159509977        0.5674093261
 C         -0.1926431113       -4.3865924393        0.2785724757
 C          0.8087785205       -3.6713659478       -0.3624279846
 H         -3.3968689450       -2.9617109630        0.5573025995
 H         -5.3555671401       -4.3764606471        1.0203257495
 H         -7.6028314357       -3.6870002065        0.3335733344
 H         -7.9637743437       -1.5370699006       -0.8348197178
 H         -7.6698945518        0.9287979339       -2.0444004370
 H         -6.7852683637        3.0253709498       -3.0111405697
 H         -4.3757434488        3.4714546205       -3.0430349685
 H         -2.7786084809        1.8720264998       -2.0636343150
 H         -0.8161709255        3.2070898591       -0.5226415189
 H         -1.1806041158        5.5891561490       -1.0177009948
 H         -3.2677900151        6.7053055760       -0.3893909072
 H         -5.0746517902        5.4584385278        0.7498943837
 H         -6.6457356906        3.5251055046        1.9424580360
 H         -7.5339221800        1.4297142889        2.9084637247
 H         -6.1551104025       -0.5946296441        2.9918059161
 H         -3.8725027173       -0.6112311937        2.0660471125
 H          0.7621646618       -2.5428666344        2.1692706465
 H          2.3297855409       -4.1906046624        3.1191074683
 H          4.7508949947       -3.8283994321        3.0242594066
 H          5.6843231826       -1.7659788436        2.0204120919
 H          9.3138865539        1.9829370329        0.2157727568
 H          9.7140641706        4.1491965365       -0.9101562230
 H          7.8249977780        5.4945047600       -1.7254298385
 H          5.5090238268        4.7069284877       -1.4342376971
 H          3.4256604406        3.6239200693       -1.0140731270
 H          1.4563652727        2.2632478764       -0.4485233476
 H          1.8765819375       -0.0542788295       -2.0178115485
 H          4.1860954912       -0.0115281661       -2.8801557665
 H          5.6227312383       -1.9910736104       -2.7287109839
 H          4.7653238932       -4.1046206564       -1.7747008335
 H          3.2091753563       -6.0762297382       -0.6234664478
 H          1.4092659909       -7.3625339230        0.4829578189
 H         -0.7193139796       -6.2964240617        1.0574619935
 H         -1.1327945580       -3.9274444890        0.5400842934
