  41
 
 C          5.3622609160       -2.7947370846        0.0873990117
 O          3.9781476270       -2.5486467156        0.0715167072
 C          3.5474553170       -1.2530115532        0.0340708932
 C          4.4140031757       -0.1286419234       -0.0050472984
 C          3.9220876678        1.1961982807       -0.0289284235
 O          4.6006876089        2.2089941293       -0.0530416333
 O          2.5404180950        1.3789116893       -0.0246679249
 C          1.6986075015        0.3216574467       -0.0026093823
 C          2.1668424725       -1.0340227318        0.0347110807
 C          1.2086088201       -2.1000557482        0.0953063322
 C         -0.1414888818       -1.8618168718        0.0928136484
 C         -0.5843258182       -0.5406955568        0.0133705314
 C          0.3454311318        0.5536842397       -0.0059892979
 C         -0.4434992786        1.7600428906       -0.0133812391
 C         -0.1134745543        3.1012075935       -0.0510343995
 C         -1.1485434468        4.0336850057       -0.0843794714
 C         -2.4738217890        3.6320770357       -0.0994852187
 C         -2.8232950802        2.2857105215       -0.0616794360
 C         -1.7982572008        1.3556057642        0.0053182415
 N         -1.8644695643       -0.0299692146        0.0221772941
 C         -3.0367496161       -0.7818213477        0.0122225015
 C         -4.0811033839       -0.4715019870        0.8871597385
 C         -5.2396793625       -1.2213811198        0.8710399706
 C         -5.3759847030       -2.2850390868       -0.0088837137
 C         -4.3398168465       -2.5969974246       -0.8770959811
 C         -3.1760676169       -1.8553950999       -0.8711998165
 H          5.4654569607       -3.8781271366        0.1279918952
 H          5.8406280334       -2.3531655878        0.9673663507
 H          5.8494325857       -2.4196510064       -0.8182637328
 H          5.4848026921       -0.2322146622       -0.0143962069
 H          1.5948589131       -3.1026311080        0.1562020577
 H         -0.8425746100       -2.6787682695        0.1664799803
 H          0.9199622406        3.4068453316       -0.0604514026
 H         -0.9121809379        5.0865183964       -0.1118043064
 H         -3.2564791497        4.3741694947       -0.1463507310
 H         -3.8587641134        1.9849788016       -0.1010963369
 H         -3.9586796216        0.3333978878        1.5958578280
 H         -6.0392917659       -0.9817354952        1.5558764658
 H         -6.2838540526       -2.8680346230       -0.0172853833
 H         -4.4445033631       -3.4193388815       -1.5688320419
 H         -2.3806838888       -2.0745506432       -1.5671902055
