  98
 
 C        -11.5547252749        0.3388713313        1.9253396144
 C        -10.8236186722        1.4906915420        1.6849363026
 C         -9.5119144759        1.4056119995        1.2562134647
 C         -8.9051590142        0.1655134136        1.0635970987
 C         -7.5073058587        0.0762459128        0.6191333850
 C         -6.6422166935       -0.8719880818        1.1639634189
 C         -5.3244743176       -0.9472687422        0.7645077533
 C         -4.8298417901       -0.0799875513       -0.2101209209
 N         -3.4927595387       -0.1506750736       -0.6175618386
 C         -2.7820809719        1.0251686264       -0.8800827826
 C         -3.0102417299        2.1769310143       -0.1258235994
 C         -2.3111123368        3.3361750034       -0.3887723639
 C         -1.3612819700        3.3892553569       -1.4079381374
 C         -0.6225953157        4.6296453306       -1.6856740938
 C         -0.1498046959        5.4251803036       -0.6433151520
 C          0.5398364739        6.5946428570       -0.9051391914
 C          0.7670327092        6.9925378894       -2.2124474646
 C          0.3015677222        6.2104700461       -3.2568469082
 C         -0.3842924682        5.0383401887       -2.9967184232
 C         -1.1354646421        2.2347223009       -2.1563280821
 C         -1.8313698593        1.0715937088       -1.9006301014
 C         -2.8596242325       -1.3952624599       -0.7135489886
 C         -3.5733148164       -2.5022838658       -1.1987520279
 C         -2.9803741423       -3.7401958235       -1.3102547350
 C         -1.6526323542       -3.8905426995       -0.9285247408
 C         -0.7384211095       -4.9972238183       -0.9317427456
 C         -0.8618405117       -6.3352881544       -1.2838803671
 C          0.2341283135       -7.1624669311       -1.1352598867
 C          1.4355633380       -6.6742353667       -0.6273835116
 C          1.5818543482       -5.3459491350       -0.2707657728
 C          0.4932066374       -4.5043996194       -0.4425231245
 N          0.3581938378       -3.1593921323       -0.1377289445
 C          1.3609202823       -2.3287510506        0.3686653251
 C          1.0758795306       -1.5003559422        1.4797027670
 C          2.0288946068       -0.6755016382        2.0035185293
 C          3.3244953613       -0.6560786774        1.4491828897
 N          4.2911273387        0.0974471325        2.0052333659
 C          5.4881102310        0.0886126947        1.4655856858
 C          6.5362554461        0.8314854752        2.1773482770
 C          6.2458367044        2.0833547063        2.7152184595
 C          7.2182869134        2.7934253962        3.3942277617
 C          8.4841846341        2.2548650255        3.5594002459
 C          8.7711482569        0.9978673578        3.0512139580
 C          7.8058132477        0.2877709052        2.3622477558
 C          5.7420610740       -0.6428772689        0.2576622824
 C          7.0083824821       -0.5347878193       -0.4787143857
 C          7.5855918331       -1.6795241127       -1.0238183213
 C          8.7769584957       -1.5962806922       -1.7200622631
 C          9.3950315621       -0.3686507317       -1.8952943787
 C          8.8108318023        0.7779548839       -1.3808468086
 C          7.6248926417        0.6993179273       -0.6750052162
 N          4.8272336477       -1.4304147374       -0.2568039203
 C          3.6134872375       -1.4839597535        0.3302364830
 C          2.6154272236       -2.3185242565       -0.1982960230
 C         -0.9392116154       -2.7773308405       -0.4284542163
 C         -1.5278554787       -1.5284624727       -0.3287010414
 C         -5.6938182769        0.8621199042       -0.7694424287
 C         -7.0063152089        0.9408657673       -0.3536209159
 C         -9.6511725692       -0.9862367491        1.3084997428
 C        -10.9639639857       -0.8993604943        1.7336391917
 H        -12.5798963758        0.4059380324        2.2595511512
 H        -11.2774052988        2.4600540367        1.8356090405
 H         -8.9424141905        2.3084571842        1.0882883968
 H         -6.9992650067       -1.5381312372        1.9357871554
 H         -4.6640475815       -1.6765385103        1.2108569658
 H         -3.7406246252        2.1550162126        0.6699495561
 H         -2.5139910987        4.2203778030        0.1976674334
 H         -0.3089013511        5.1128248853        0.3788550128
 H          0.9039552941        7.1981366070       -0.0857194186
 H          1.3036615696        7.9077352983       -2.4163915837
 H          0.4716509376        6.5173381976       -4.2791356637
 H         -0.7590886292        4.4421736236       -3.8163958363
 H         -0.3949950513        2.2454687143       -2.9430347514
 H         -1.6445013426        0.1879725165       -2.4936275041
 H         -4.6010929506       -2.3657955679       -1.4999623013
 H         -3.5355634480       -4.5786126831       -1.7020297691
 H         -1.7985895902       -6.7175239716       -1.6606849668
 H          0.1600829250       -8.2054064762       -1.4061281248
 H          2.2713135739       -7.3477148444       -0.5059706744
 H          2.5129577789       -4.9834977858        0.1378967579
 H          0.0942073693       -1.5510873982        1.9256271087
 H          1.8260405996       -0.0467566654        2.8566329515
 H          5.2544573396        2.4902982431        2.5823379067
 H          6.9875310199        3.7685444122        3.7975142276
 H          9.2441082957        2.8099580519        4.0891680051
 H          9.7515934065        0.5673759640        3.1920962206
 H          8.0294797283       -0.6977249318        1.9800422054
 H          7.0920828274       -2.6296421957       -0.8833438917
 H          9.2230740813       -2.4909898741       -2.1289030733
 H         10.3263672446       -0.3038345310       -2.4381390168
 H          9.2805507893        1.7390312062       -1.5296290079
 H          7.1658757828        1.5974014206       -0.2878448621
 H          2.8495310358       -2.9220988005       -1.0611939048
 H         -0.9782254128       -0.6696551284        0.0243815903
 H         -5.3266263036        1.5300690799       -1.5351941719
 H         -7.6631529079        1.6661203129       -0.8113477678
 H         -9.2030663849       -1.9558566390        1.1452397694
 H        -11.5305030562       -1.8018528709        1.9147209007
