93

C     -8.356836   -4.493177   -0.456359
C     -8.298258   -3.765809    0.731726
C     -7.259435   -2.855704    0.946150
C     -6.278245   -2.656752   -0.031303
C     -5.181774   -1.721269    0.154663
N     -3.889999   -2.087731   -0.101260
C     -3.156181   -1.005532    0.066852
C     -1.683209   -1.013818    0.021665
C     -0.989738   -0.679099    1.192976
C      0.398523   -0.628096    1.200941
C      1.135647   -0.917475    0.042914
C      2.601174   -0.803540    0.118088
C      3.243569    0.381534   -0.265935
C      4.635665    0.495000   -0.195067
C      5.425843   -0.571175    0.266754
N      6.862741   -0.452552    0.337510
C      7.582533    0.205171   -0.727350
C      8.650157    1.077142   -0.449597
C      9.343587    1.716012   -1.480754
C      8.981543    1.493664   -2.807485
C      7.927411    0.633297   -3.104610
C      7.233596   -0.005424   -2.073255
C      7.578990   -0.988707    1.471237
C      8.814256   -1.639922    1.305774
C      9.508206   -2.157473    2.402844
C      8.979029   -2.033233    3.684897
C      7.757133   -1.392095    3.871590
C      7.062974   -0.874971    2.774486
C      4.775847   -1.754663    0.655287
C      3.383140   -1.869380    0.582366
C      0.454954   -1.292404   -1.151492
C      1.146582   -1.612474   -2.345501
C      0.480130   -1.974814   -3.515697
C     -0.902754   -2.030043   -3.526093
C     -1.613548   -1.721630   -2.366797
C     -0.967368   -1.348803   -1.161790
N     -3.959021    0.104303    0.358228
C     -3.522700    1.463847    0.463705
C     -4.064839    2.317527    1.433850
C     -3.628329    3.642172    1.533142
C     -2.648176    4.120418    0.669120
C     -2.122597    3.283940   -0.317577
C     -2.545844    1.957621   -0.414057
O     -1.182941    3.696103   -1.228250
C     -1.077093    5.123693   -1.261906
C     -1.031207    5.692232    0.146481
O     -2.254922    5.422436    0.840233
C     -5.270428   -0.376286    0.489754
C     -6.462435    0.455120    0.666270
C     -7.105956    0.525707    1.908818
C     -8.240913    1.322373    2.071577
C     -8.740688    2.051567    0.993438
C     -8.109133    1.983408   -0.247809
C     -6.975053    1.185999   -0.412570
C     -6.336451   -3.407787   -1.213919
C     -7.373371   -4.318516   -1.428095
H     -9.163055   -5.203332   -0.619948
H     -9.057100   -3.911318    1.496039
H     -7.217783   -2.321289    1.889712
H     -1.530267   -0.449288    2.108646
H      0.913144   -0.350373    2.119123
H      2.658528    1.226959   -0.624034
H      5.100343    1.433765   -0.487044
H      8.936790    1.279388    0.579630
H     10.162968    2.389731   -1.245009
H      9.520314    1.991877   -3.609117
H      7.644136    0.454682   -4.138712
H      6.425039   -0.686640   -2.327638
H      9.237491   -1.764729    0.312116
H     10.459309   -2.661063    2.252392
H      9.518651   -2.435492    4.538547
H      7.342378   -1.290803    4.870737
H      6.119293   -0.362837    2.946113
H      5.354589   -2.608473    1.000952
H      2.910183   -2.802051    0.883403
H      2.234511   -1.585772   -2.375796
H      1.045597   -2.216383   -4.411435
H     -1.434362   -2.317328   -4.428925
H     -2.699519   -1.788311   -2.411307
H     -4.795260    1.970480    2.157846
H     -4.043020    4.294485    2.296569
H     -2.132746    1.349971   -1.213995
H     -0.158733    5.375459   -1.801569
H     -1.927491    5.522376   -1.828703
H     -0.201366    5.267623    0.725029
H     -0.902630    6.778571    0.112401
H     -6.722711   -0.034193    2.758664
H     -8.735683    1.373826    3.038244
H     -9.625286    2.671018    1.118788
H     -8.500358    2.549224   -1.089594
H     -6.495242    1.137886   -1.387637
H     -5.566519   -3.284620   -1.973044
H     -7.407922   -4.892959   -2.350251
