  91
 
 C         -2.2177527513        5.5602747437       -1.8187278197
 C         -1.8363884858        4.9276147221       -0.4770399308
 C         -0.3116156298        5.0222263252       -0.3176287534
 C         -2.5273382723        5.7209062386        0.6424435439
 C         -2.2537880396        3.4689254841       -0.3764506061
 C         -2.9330667277        2.8050396246       -1.3929370759
 C         -3.2939806651        1.4750788839       -1.2692997955
 C         -2.9851916421        0.7752653863       -0.1100999568
 N         -3.3125118213       -0.5934841237        0.0148348092
 C         -2.3922282475       -1.6125515585        0.0967354893
 C         -0.9507194753       -1.4306556299        0.0374845230
 C         -0.1470701820       -2.2532496414        0.8291494924
 C          1.2249064180       -2.1161581261        0.8199570073
 C          1.8274491322       -1.1603501859        0.0047361314
 N          3.2327934854       -1.0103310550       -0.0007451925
 C          4.0365992725       -2.0452010672       -0.4862153947
 C          3.4817336457       -3.1907215190       -1.0366054771
 C          4.2856797206       -4.2284873394       -1.4922750927
 C          5.6561810556       -4.1250602674       -1.4005149510
 C          6.2274224414       -2.9688002229       -0.8845204835
 C          5.4372527765       -1.9154846410       -0.4479908495
 N          6.0082058859       -0.7399215923        0.0334409493
 C          7.4219907145       -0.6022760099        0.0533633524
 C          8.1169437080       -0.3794796003       -1.1297324240
 C          9.4943822797       -0.2495629169       -1.1063113510
 C         10.1814681954       -0.3349411617        0.0937565190
 C          9.4890690382       -0.5541467482        1.2735433053
 C          8.1120756585       -0.6903819242        1.2567183301
 C          5.2083564132        0.3096677454        0.4779374323
 C          5.7708517420        1.5007125740        0.9132529272
 C          4.9760590647        2.5327010267        1.3952736201
 C          3.6092914225        2.3730993035        1.4516322127
 C          3.0301662388        1.1952190217        0.9950892615
 C          3.8079591167        0.1681929731        0.4814239404
 C          1.0322188979       -0.3601025542       -0.8103793770
 C         -0.3417522102       -0.4924669153       -0.7950768677
 N         -2.9624965839       -2.7850990293        0.2410978651
 C         -4.3013060409       -2.5482400786        0.2523880878
 C         -5.3544102119       -3.4996299392        0.3583393164
 C         -5.0886149896       -4.8704709613        0.4509687185
 C         -6.1186741583       -5.7743935820        0.5298856503
 C         -7.4343194384       -5.3145696286        0.5149507793
 C         -7.7074400415       -3.9690801724        0.4293151293
 C         -6.6821557332       -3.0132055172        0.3521275063
 C         -6.9387305633       -1.5842011694        0.2853572935
 C         -8.2420217331       -1.0682726280        0.3368771417
 C         -8.4945053221        0.2830694636        0.3090966683
 C         -7.4403665480        1.1888376931        0.2415882649
 C         -6.1490515701        0.7251395856        0.1836833940
 C         -5.8708204610       -0.6495695375        0.1869080135
 C         -4.5516151648       -1.1822091284        0.1274879999
 C         -2.3084003796        1.4204732620        0.9167204141
 C         -1.9529136992        2.7474834160        0.7774667498
 H         -1.8915664271        6.5981749782       -1.8334252925
 H         -3.2950397919        5.5468568891       -1.9676742317
 H         -1.7343020708        5.0457834973       -2.6460782970
 H          0.1866487753        4.4255627425       -1.0792867004
 H          0.0085936631        4.6659613762        0.6571726165
 H          0.0102213063        6.0558374322       -0.4237366991
 H         -3.6088174459        5.6451227613        0.5470568201
 H         -2.2450899638        5.3508183011        1.6241982068
 H         -2.2488137932        6.7706343601        0.5811571124
 H         -3.1906399755        3.3142968939       -2.3064988805
 H         -3.8185026362        0.9737176332       -2.0706228725
 H         -0.6224200499       -2.9916485661        1.4562183004
 H          1.8414052791       -2.7462895352        1.4439985970
 H          2.4093680979       -3.2804388013       -1.1133254753
 H          3.8252129782       -5.1103973020       -1.9110738643
 H          6.2940131302       -4.9297953675       -1.7332655847
 H          7.3015616182       -2.8877750731       -0.8230243039
 H          7.5717317589       -0.3135624861       -2.0600853135
 H         10.0315030221       -0.0772598271       -2.0273221852
 H         11.2561990773       -0.2313122444        0.1093796492
 H         10.0223808116       -0.6227021635        2.2101914961
 H          7.5631881626       -0.8621133946        2.1712044411
 H          6.8421251467        1.6246085948        0.8799243128
 H          5.4395821406        3.4482236868        1.7301247881
 H          2.9800884653        3.1560986166        1.8460003079
 H          1.9586875055        1.0794079577        1.0441970745
 H          1.4999223813        0.3647161886       -1.4603014182
 H         -0.9373977742        0.1212537931       -1.4525536902
 H         -4.0560184273       -5.1851450105        0.4526827584
 H         -5.9158516192       -6.8331177559        0.5994267053
 H         -8.2492788895       -6.0219847677        0.5714120282
 H         -8.7408275666       -3.6609551117        0.4192373698
 H         -9.0816799868       -1.7405558814        0.4072382148
 H         -9.5127691433        0.6413018720        0.3499563273
 H         -7.6350498721        2.2512367145        0.2386356946
 H         -5.3334609641        1.4292160746        0.1461454350
 H         -2.0632782444        0.8768219606        1.8177331312
 H         -1.4294372136        3.2222296624        1.5925019808
