  78
 
 C          1.3433169540        0.4295291629       -4.6127311059
 C          1.0281746462       -0.7903450744       -4.0389731347
 C          1.4042857402       -1.0587386710       -2.7359459180
 C          2.0813015539       -0.1122085984       -1.9720904396
 Si         2.5763123666       -0.4871730053       -0.1835378468
 C          3.5786388431       -2.0978935257       -0.1581659976
 C          4.4179736607       -2.4221141785       -1.2210060441
 C          5.1708060901       -3.5820348880       -1.2074543117
 C          5.0947902571       -4.4443341175       -0.1262485257
 C          4.2601981435       -4.1403977569        0.9362690184
 C          3.5105469288       -2.9781212342        0.9176339863
 C          3.6260285427        0.9391308455        0.4917702130
 C          3.0227005638        2.1399997563        0.8553291364
 C          3.7710368816        3.1988258154        1.3353443157
 C          5.1447823531        3.0731628573        1.4621836144
 C          5.7608615091        1.8850199670        1.1076990600
 C          5.0058313662        0.8298112875        0.6268092332
 C          1.0556621921       -0.6491927671        0.9342277207
 C          1.1799181074       -0.4577144441        2.3426230527
 C          0.0962854757       -0.7111559456        3.1985627667
 C         -1.1066501397       -1.0993287499        2.6869534270
 C         -1.3042898103       -0.9875114098        1.2603239314
 Si        -2.7140929944        0.1087937847        0.5864312840
 C         -4.0093661907       -1.1608465004        0.0010885456
 C         -3.6322271067       -2.3588036141       -0.5958395085
 C         -4.5827162316       -3.2492068665       -1.0625250463
 C         -5.9297138397       -2.9547582630       -0.9351482151
 C         -6.3190828617       -1.7653267380       -0.3423779370
 C         -5.3648154200       -0.8772362048        0.1213392588
 C         -2.0505960721        1.0777482424       -0.8913651263
 C         -0.9682774162        1.9395454215       -0.7257815026
 C         -0.4370618969        2.6336403074       -1.7951698539
 C         -0.9721864881        2.4669461493       -3.0616393748
 C         -2.0333959795        1.5979910383       -3.2489501575
 C         -2.5659382358        0.9121087376       -2.1727789000
 C         -3.4595122833        1.2310422348        1.9017409680
 C         -3.2995781901        2.6155737143        1.8763021702
 C         -3.8185883406        3.4125830263        2.8785262719
 C         -4.5098417992        2.8412571271        3.9353654626
 C         -4.6806131203        1.4669445343        3.9770073987
 C         -4.1604262563        0.6743217823        2.9722833680
 C         -0.1469865279       -1.0251552406        0.4160537195
 C          2.3943803693        1.1049857802       -2.5674971039
 C          2.0368855866        1.3738640802       -3.8759932437
 H          1.0554382436        0.6394534340       -5.6327527289
 H          0.4947069304       -1.5353582955       -4.6121132688
 H          1.1825032436       -2.0257098734       -2.3058915858
 H          4.4774435555       -1.7537922215       -2.0688624301
 H          5.8183746014       -3.8155887968       -2.0407147806
 H          5.6822009694       -5.3510916642       -0.1132392879
 H          4.1944786793       -4.8119265170        1.7805304365
 H          2.8571281320       -2.7485200179        1.7470853192
 H          1.9504391520        2.2388637446        0.7610143253
 H          3.2849918423        4.1235414426        1.6128044786
 H          5.7324784568        3.8982885303        1.8380756520
 H          6.8320285519        1.7812428177        1.2072169009
 H          5.4912633485       -0.0966696201        0.3539025834
 H          2.1572606611       -0.2708486880        2.7593724727
 H          0.2546571927       -0.7073650787        4.2688995227
 H         -1.9168469751       -1.4182010016        3.3219265830
 H         -2.5829827913       -2.5965093954       -0.6933652331
 H         -4.2730573015       -4.1756397524       -1.5249884601
 H         -6.6739351087       -3.6502161796       -1.2954516123
 H         -7.3687581789       -1.5289493711       -0.2413087974
 H         -5.6738136869        0.0500579842        0.5818474414
 H         -0.5416476447        2.0609220963        0.2602871729
 H          0.3971529139        3.3038536141       -1.6453923208
 H         -0.5609483616        3.0093450384       -3.8999802885
 H         -2.4486749609        1.4579054571       -4.2368755009
 H         -3.3978127129        0.2382583113       -2.3245266660
 H         -2.7694848088        3.0703981369        1.0518307571
 H         -3.6871876687        4.4846563120        2.8373578510
 H         -4.9157846887        3.4635105145        4.7196159554
 H         -5.2228819975        1.0149367263        4.7956626160
 H         -4.3075084746       -0.3961700218        3.0070327042
 H         -0.2666175888       -1.1937125397       -0.6422743840
 H          2.9339660978        1.8475440919       -1.9968680706
 H          2.2989489120        2.3225721940       -4.3227351090
