  95
 
 C         -1.9304242340        4.2598973421        1.6941200029
 C         -2.3550542802        3.0161898734        2.1869625673
 C         -3.0425093377        2.1505471837        1.3826435165
 C         -3.3347437848        2.4911426892        0.0455632174
 C         -4.0346666603        1.6226520087       -0.8337197493
 N         -4.4120014641        0.3366705852       -0.3880229194
 C         -3.5490074809       -0.7076668535       -0.1198543589
 C         -2.1072211418       -0.6524040716       -0.1990574532
 C         -1.3996668758        0.1996597219       -1.0535123091
 C         -0.0248006849        0.2293907042       -1.0329587942
 C          0.7140078006       -0.6092762863       -0.1853243770
 C          2.1645226009       -0.5551796039       -0.1520670557
 C          2.9286815376       -1.7522164647       -0.3321127445
 C          2.3277794060       -2.9761796558       -0.6429050464
 C          3.0732299909       -4.1469619805       -0.7515803262
 C          4.4380029642       -4.1169899118       -0.5486070605
 C          5.0726986631       -2.9049397961       -0.3002142082
 C          4.3518666346       -1.7072573813       -0.2372630497
 C          4.9955705433       -0.4501453346       -0.0521537746
 N          6.3917782509       -0.3977173276        0.0035703295
 C          7.2583258828       -0.7614579544       -1.0090517107
 C          6.9695585902       -1.2039512962       -2.2928834821
 C          8.0321147952       -1.4702239485       -3.1352444449
 C          9.3506865581       -1.2935228275       -2.7196020213
 C          9.6424474782       -0.8331275277       -1.4491553525
 C          8.5920504259       -0.5603661867       -0.5837315884
 C          8.5183216270       -0.0614723597        0.7637285000
 C          9.4714240633        0.2912004355        1.7092735858
 C          9.0435115433        0.7208740139        2.9516195204
 C          7.6861713801        0.7892291780        3.2607009148
 C          6.7186681876        0.4430994886        2.3368026120
 C          7.1432509216        0.0303372634        1.0811076134
 C          4.2489613039        0.7561837282        0.0772880403
 C          4.8744143357        2.0034270663        0.1843220706
 C          4.1375200686        3.1664026547        0.3792291495
 C          2.7630109148        3.0968878912        0.4819948328
 C          2.1147235729        1.8747386992        0.3275151224
 C          2.8231518767        0.6967295149        0.0700466466
 C         -0.0018258378       -1.5018028415        0.6290575639
 C         -1.3748175875       -1.5167162884        0.6273145247
 N         -4.1957063314       -1.7889755592        0.2607157362
 C         -5.5123676047       -1.4685938825        0.2393451341
 C         -6.6208508201       -2.3112795691        0.5343050108
 C         -6.4384365955       -3.6535549216        0.8850545815
 C         -7.5211225759       -4.4585639002        1.1393584694
 C         -8.8056662518       -3.9270761273        1.0412385899
 C         -8.9967465606       -2.6076323721        0.7009577106
 C         -7.9157495378       -1.7506189125        0.4418867240
 C         -8.0836385116       -0.3449565176        0.1117590607
 C         -9.3498505245        0.2566645293        0.0825563141
 C         -9.5171665645        1.5946048562       -0.1887067331
 C         -8.4096126607        2.4019493119       -0.4297306879
 C         -7.1519949759        1.8509030382       -0.4177612537
 C         -6.9608686522        0.4830821253       -0.1703311671
 C         -5.6809028105       -0.1374916117       -0.1480001357
 C         -4.3225987085        2.0044602618       -2.1226089076
 C         -3.9225609410        3.2614496704       -2.5944136524
 C         -3.2302808749        4.1149251704       -1.7804378615
 C         -2.9208097487        3.7560095660       -0.4513444050
 C         -2.2100143079        4.6224775922        0.4065180271
 H         -1.3842971822        4.9279513238        2.3437014163
 H         -2.1346575916        2.7450348107        3.2088589985
 H         -3.3685565488        1.1953932081        1.7688800664
 H         -1.9249518936        0.8250040727       -1.7579591947
 H          0.5026745820        0.8783984631       -1.7170008939
 H          1.2624169186       -3.0184550906       -0.8076236059
 H          2.5741025303       -5.0752715673       -0.9870561360
 H          5.0221280331       -5.0237560678       -0.6006860865
 H          6.1431593155       -2.8931933249       -0.1617382171
 H          5.9490478975       -1.3392994066       -2.6178683207
 H          7.8364331278       -1.8203876031       -4.1381368201
 H         10.1546090012       -1.5149546369       -3.4060602344
 H         10.6644939602       -0.6829571849       -1.1351980924
 H         10.5239063095        0.2250675220        1.4777918606
 H          9.7697209979        1.0026052042        3.6998481587
 H          7.3837140231        1.1173787240        4.2443133058
 H          5.6680794491        0.4947642493        2.5795065794
 H          5.9500157765        2.0689785448        0.1223712093
 H          4.6495221336        4.1130682360        0.4681094279
 H          2.1808628601        3.9857842846        0.6746723462
 H          1.0401088230        1.8405851883        0.4135783296
 H          0.5409620383       -2.1475174083        1.3039470658
 H         -1.9200607539       -2.1837282965        1.2774591551
 H         -5.4274042890       -4.0276822178        0.9409750301
 H         -7.3830068927       -5.4952561760        1.4093357016
 H         -9.6617601581       -4.5576086578        1.2341638432
 H        -10.0091731082       -2.2424659401        0.6340648405
 H        -10.2282980674       -0.3340995834        0.2857206795
 H        -10.5094339048        2.0211368474       -0.2026508917
 H         -8.5363931512        3.4572346979       -0.6214246427
 H         -6.2947025548        2.4819094740       -0.5885409418
 H         -4.8598423467        1.3268004597       -2.7709481169
 H         -4.1609268647        3.5402718272       -3.6096731783
 H         -2.9107040986        5.0802793346       -2.1441909769
 H         -1.8921920662        5.5811530110        0.0227984117
