  90
 
 C          6.6023694013       -3.7437235075       -1.7951904972
 C          6.0299148953       -3.3314853821       -0.6026382520
 C          6.4348925504       -2.1527574951       -0.0059582057
 C          7.4110789357       -1.3697312217       -0.6153924822
 N          7.8231231285       -0.1685664053       -0.0173473847
 C          7.0277670501        0.8381387230        0.4957604647
 C          5.5818711422        0.8776437115        0.3478573793
 C          4.9423437848        0.4152960101       -0.8019703893
 C          3.5666630116        0.4552346857       -0.8960461940
 C          2.8034534374        0.9567971322        0.1547206766
 N          1.3938924496        0.9591240152        0.0680676219
 C          0.7033131350       -0.2527401808        0.0465308885
 C          1.3733452479       -1.4644565835        0.1371070098
 C          0.6867342173       -2.6693683714        0.0751269700
 C         -0.6810834428       -2.6698844865       -0.0850649141
 C         -1.3693360271       -1.4656088082       -0.1410664452
 C         -0.7009716505       -0.2534408600       -0.0444327237
 N         -1.3930931685        0.9576473781       -0.0600485695
 C         -2.8025351407        0.9544550257       -0.1480110219
 C         -3.4394256092        1.4583173288       -1.2795645617
 C         -4.8148326264        1.4258527982       -1.3717344812
 C         -5.5809028923        0.8770961761       -0.3433141390
 C         -7.0268649321        0.8405862489       -0.4913618455
 N         -7.7126998046        1.7779483010       -1.0857653649
 C         -9.0257367502        1.4098849641       -0.9884683039
 C        -10.1741838640        2.0412037733       -1.4538430746
 C        -11.3830081560        1.4199673988       -1.2244834185
 C        -11.4630338424        0.1948520848       -0.5587528836
 C        -10.3366634654       -0.4487859732       -0.0865943449
 C         -9.1197040045        0.1796235492       -0.2952116279
 N         -7.8235828290       -0.1685381658        0.0147767274
 C         -7.4127551337       -1.3745067785        0.6039078952
 C         -7.9874016951       -1.7949874006        1.7983345370
 C         -7.5834101625       -2.9869775150        2.3722905581
 C         -6.6054917212       -3.7574841206        1.7663887178
 C         -6.0341994909       -3.3379288029        0.5758338300
 C         -6.4384235927       -2.1546076863       -0.0122007264
 C         -4.9420743192        0.4065336210        0.8035605765
 C         -3.5664426592        0.4456747295        0.8987738134
 C         -0.7030947113        2.1705809048       -0.0113641748
 C         -1.3802306491        3.3806286064        0.0267191940
 C         -0.6904012578        4.5850927145        0.0335735271
 C          0.6867175633        4.5860765851       -0.0052205947
 C          1.3780513295        3.3824579978       -0.0050002751
 C          0.7023948369        2.1713877329        0.0261809387
 C          3.4410564877        1.4534767840        1.2890196265
 C          4.8165227450        1.4200552415        1.3801825082
 N          7.7148127219        1.7699104454        1.0975121093
 C          9.0272813464        1.4002927417        0.9984618680
 C         10.1764644205        2.0260011373        1.4695732574
 C         11.3843533038        1.4042486134        1.2367126659
 C         11.4627394260        0.1839972867        0.5619167656
 C         10.3356207940       -0.4540177841        0.0839604768
 C          9.1196189198        0.1750531715        0.2961686673
 C          7.9867365927       -1.7827795070       -1.8119285940
 C          7.5820854273       -2.9703574967       -2.3945008916
 H          6.2856730661       -4.6669491572       -2.2561108492
 H          5.2688355150       -3.9343408958       -0.1304721560
 H          6.0004703102       -1.8307092906        0.9289085567
 H          5.5200912798        0.0428128240       -1.6345624778
 H          3.0710035515        0.0967943340       -1.7860957169
 H          2.4452836717       -1.4730531120        0.2576585745
 H          1.2343208929       -3.5965673202        0.1452241905
 H         -1.2274196221       -3.5974629293       -0.1597361893
 H         -2.4412475097       -1.4750918884       -0.2617841505
 H         -2.8456214512        1.8674262956       -2.0834625104
 H         -5.3205767022        1.8107196610       -2.2431718743
 H        -10.1055811072        2.9805257943       -1.9782294815
 H        -12.2943052672        1.8837015554       -1.5722137574
 H        -12.4311048952       -0.2606821790       -0.4116050347
 H        -10.4024879329       -1.4023771245        0.4160142111
 H         -8.7346422139       -1.1791397132        2.2765020800
 H         -8.0304946622       -3.3105005421        3.3004455251
 H         -6.2892696804       -4.6841701470        2.2206419045
 H         -5.2746010368       -3.9385704767        0.0984872648
 H         -6.0048286673       -1.8266881003       -0.9454108587
 H         -5.5203562461        0.0284549968        1.6332570870
 H         -3.0714364263        0.0813526210        1.7867979995
 H         -2.4585172800        3.3876292337        0.0526600044
 H         -1.2423586617        5.5116829861        0.0604279702
 H          1.2374805869        5.5135105759       -0.0269713846
 H          2.4563357588        3.3908674212       -0.0307734469
 H          2.8477968571        1.8573378505        2.0959671784
 H          5.3228837804        1.7989326871        2.2538847306
 H         10.1091109695        2.9614958861        2.0009162509
 H         12.2961842546        1.8636892008        1.5887153664
 H         12.4300970554       -0.2722332137        0.4122551890
 H         10.4001699831       -1.4040017296       -0.4255925354
 H          8.7353561074       -1.1646285847       -2.2849358234
 H          8.0301220188       -3.2881726045       -3.3241687259
