  89
 
 C         -9.0622737747        2.5941126237        2.1560339366
 C         -7.7352884849        2.9574371132        1.9860213723
 C         -6.8359335753        2.0616869994        1.4415137494
 C         -7.2610086490        0.7898376902        1.0621886554
 C         -6.3109294105       -0.1614076165        0.4855021034
 N         -6.7549131881       -1.3729413940        0.1638540344
 C         -5.8575926918       -2.2059989144       -0.3552296701
 C         -6.3004842958       -3.5498313101       -0.7265104784
 C         -7.6272845688       -3.9288509216       -0.5321723785
 C         -8.0427758160       -5.1978528173       -0.8854007723
 C         -7.1415170358       -6.0972567991       -1.4337571291
 C         -5.8203817610       -5.7252578419       -1.6288017247
 C         -5.3984049466       -4.4578254687       -1.2777875090
 N         -4.5812643721       -1.8905372032       -0.5586000141
 C         -4.2246534329       -0.6576720717       -0.2116990657
 C         -2.8338464404       -0.2605676253       -0.4256141053
 C         -1.9246063479       -1.1534406087       -0.9899993705
 C         -0.6211060796       -0.7606919329       -1.2053388607
 C         -0.1999496464        0.5192277845       -0.8534269921
 N          1.1253106942        0.8980333785       -1.1123128691
 C          1.5292531602        2.0156824421       -1.8136550252
 C          0.7684083517        2.9290366658       -2.5281225800
 C          1.4318373152        3.9612713249       -3.1613064354
 C          2.8191797945        4.0786985297       -3.1046602180
 C          3.5837644090        3.1522972719       -2.4251139721
 C          2.9385759607        2.1077210069       -1.7762346718
 C          3.3998275349        0.9833875413       -1.0111495847
 C          4.6570178851        0.5514840900       -0.6171018727
 C          4.7519131751       -0.5993707135        0.1518969816
 N          6.0138578621       -1.0728080035        0.5480977696
 C          7.0789968701       -1.3179448104       -0.2929261033
 C          7.1603639688       -1.1972398621       -1.6730272078
 C          8.3544520937       -1.5344282837       -2.2800965417
 C          9.4446884278       -1.9878965712       -1.5400735743
 C          9.3636054743       -2.1281866831       -0.1692854369
 C          8.1734409435       -1.7959467903        0.4646476363
 C          7.7369894857       -1.8315957582        1.8318789875
 C          8.3532779832       -2.1883369015        3.0241432784
 C          7.6349653400       -2.0821200870        4.1980842367
 C          6.3222943992       -1.6146217365        4.1953722141
 C          5.6871408302       -1.2542471015        3.0228210274
 C          6.3969363349       -1.3788595148        1.8367760406
 C          3.6027724854       -1.2985550987        0.5402789936
 C          2.3437080504       -0.8731136145        0.1688949674
 C          2.2468606475        0.2613203509       -0.6242758877
 C         -1.0975365575        1.4190768220       -0.2579452826
 C         -0.6681325062        2.7611137673        0.1757497408
 C          0.4860564044        2.9329590378        0.9349388897
 C          0.8887966252        4.1984235187        1.3178025712
 C          0.1448200946        5.3073535789        0.9522952271
 C         -1.0155920616        5.1439390764        0.2150513459
 C         -1.4223570262        3.8795046981       -0.1672199386
 C         -2.4103129573        1.0150447944       -0.0657708376
 N         -5.0543059504        0.2392017248        0.3127908903
 C         -8.5958331726        0.4294020475        1.2355484871
 C         -9.4901499486        1.3301726432        1.7801801141
 H         -9.7636874766        3.2966311332        2.5820581464
 H         -7.4039610937        3.9426200453        2.2801969335
 H         -5.7996115596        2.3268941227        1.3030163785
 H         -8.3140120103       -3.2157506159       -0.1041337113
 H         -9.0716448957       -5.4900631565       -0.7342499704
 H         -7.4690474304       -7.0891013253       -1.7093732800
 H         -5.1199741418       -6.4278965626       -2.0561475811
 H         -4.3745949721       -4.1508740911       -1.4223781702
 H         -2.2611538157       -2.1403834409       -1.2635182966
 H          0.0854089404       -1.4344584733       -1.6675976905
 H         -0.3041933858        2.8339560787       -2.5934905344
 H          0.8627812790        4.6912300617       -3.7175232763
 H          3.2997022321        4.9018701814       -3.6119339801
 H          4.6600723826        3.2314436468       -2.3985498430
 H          5.5443040862        1.1020887846       -0.8890168881
 H          6.3156143501       -0.8603816557       -2.2552263001
 H          8.4443309363       -1.4474232455       -3.3530727438
 H         10.3617474195       -2.2390841756       -2.0522013298
 H         10.2041997866       -2.4919830551        0.4024089409
 H          9.3750582976       -2.5372122897        3.0280232329
 H          8.0951801816       -2.3561151530        5.1358923221
 H          5.7906529567       -1.5289249046        5.1318518726
 H          4.6749631744       -0.8782441932        3.0313678679
 H          3.7144142590       -2.1925351088        1.1349870047
 H          1.4633316607       -1.4111423152        0.4864789752
 H          1.0639982980        2.0726259707        1.2405365393
 H          1.7884506822        4.3187818187        1.9030857302
 H          0.4661446726        6.2957905069        1.2451903469
 H         -1.6039675179        6.0051721549       -0.0659312080
 H         -2.3208771847        3.7543257027       -0.7546315732
 H         -3.1192407270        1.6849764374        0.3951533504
 H         -8.9104547083       -0.5582124402        0.9372975903
 H        -10.5246095798        1.0493570906        1.9136850043
