36
 xtb: 6.7.1 (edcfbbe)
O            2.42281000886991       -0.26605445416042       -2.11953503684114
S            2.59715822629603       -0.74092231683473       -0.74395031185976
O            3.79790638075181       -1.47873178903701       -0.47706660593762
C            2.41157693187050        0.62849159639181        0.33817381903300
C            3.48571816457753        1.30247328981488        0.88248289168983
C            3.29307745750672        2.49026559322980        1.56849380214309
C            1.99077922559432        3.02204074160295        1.69574512781927
C            0.91284519076006        2.36528233550428        1.15889474412691
C            1.08591582483695        1.14373715607264        0.47149991585557
N           -0.00179500212007        0.43653554851530        0.01653967760191
C           -1.10167173549572        1.12962079652181       -0.46187233646306
C           -0.92775690844697        2.30533655091414       -1.21495400098669
C           -2.01320176069829        2.94740775757303       -1.76453264419746
C           -3.31209800008185        2.43676270077695       -1.58463115642963
C           -3.50180562568276        1.28457450798191       -0.84165691945452
C           -2.42014315261008        0.63264901988515       -0.28030060117279
S           -2.55810543252958       -0.73527769152987        0.83897718474960
O           -2.30011386948993       -0.27672163487256        2.17648848448759
O           -3.79974833489790       -1.45173210220067        0.61451151244105
C           -1.17331977888268       -1.67807780970091        0.27173141537224
C           -1.19318937388903       -3.07975760499435        0.19633908665237
C           -0.03561195334480       -3.76996227316330       -0.10340028536701
C            1.14840615841122       -3.07740333812493       -0.34973395646380
C            1.14963271770722       -1.67930928936135       -0.31836701440706
C           -0.00055300878852       -0.96406958321891       -0.00690739908848
H            4.47399712254023        0.88602869158260        0.70928493915714
H            4.13712050442235        2.99153984109921        2.00872901728110
H            1.84682473929827        3.90486008630130        2.28241838364072
H           -0.08731544616587        2.70851387670142        1.34312599751687
H            0.07749872829653        2.68743441764411       -1.36762324569622
H           -1.86110205984475        3.87274467878323       -2.31309912036652
H           -4.15003349740584        2.96532345434827       -2.01385805061994
H           -4.48046204879226        0.87581897192827       -0.68752255541293
H           -2.10521092483821       -3.58059381148206        0.46033091795381
H           -0.00838558237731       -4.84847482154035       -0.04220275939729
H            2.09540412360663       -3.57735840613795       -0.51287829855842
