  76
 
 C          0.8430626216       -6.2068525423        1.7637195659
 C          2.0900367838       -5.6670036134        1.4088517118
 C          2.1974081889       -4.3626677668        1.0068619742
 C          1.0531117172       -3.5459180003        0.9519246422
 C          1.0331266197       -2.1695457429        0.5818303911
 C          2.2618796553       -1.3908029330        0.3731939846
 C          2.3614292995       -0.5468392126       -0.7313547542
 C          3.4988312128        0.2047818344       -0.9421236804
 C          4.5594313377        0.1360133064       -0.0402902522
 N          5.7180021153        0.8922176623       -0.2534955555
 C          6.4489128992        0.9372232583       -1.4261089965
 C          6.2589692435        0.2451333938       -2.6139375056
 C          7.1663187911        0.4540922607       -3.6354592356
 C          8.2452778785        1.3227102467       -3.4840222506
 C          8.4532555444        1.9954034863       -2.2961028663
 C          7.5541907890        1.8021219499       -1.2549725807
 C          7.4739924396        2.3072747696        0.0878099722
 C          8.2483426479        3.1973943902        0.8211205819
 C          7.8684791582        3.4949491493        2.1149837177
 C          6.7245379673        2.9283269465        2.6735589008
 C          5.9385909581        2.0399987525        1.9639327372
 C          6.3293093356        1.7176262471        0.6718342325
 C          4.4545172450       -0.6875123056        1.0787796564
 C          3.3159681141       -1.4414509778        1.2833188046
 N         -0.0986296428       -1.5265960299        0.4147652616
 C         -1.2571817581       -2.1670733931        0.6728210437
 C         -2.4896295579       -1.4100716388        0.4523035403
 C         -2.4407307488       -0.1011377658       -0.0269160592
 C         -3.6030018482        0.6078747716       -0.2459480374
 C         -4.8409462605        0.0233264766        0.0189211304
 N         -6.0212847353        0.7433067258       -0.1984968349
 C         -6.2861536645        2.0200124173        0.2609183095
 C         -5.5119381007        2.8512943788        1.0582828817
 C         -6.0353877128        4.0818294892        1.4077527358
 C         -7.3023873813        4.4803523980        0.9862490908
 C         -8.0872439365        3.6476758018        0.2132679083
 C         -7.5829605878        2.4053804620       -0.1501525430
 C         -8.1186971624        1.3026192010       -0.8995347414
 C         -9.3220264357        1.0922028620       -1.5608457937
 C         -9.5152120051       -0.1066508540       -2.2183397581
 C         -8.5200498225       -1.0818977587       -2.2359564078
 C         -7.3145841135       -0.8952588065       -1.5860391763
 C         -7.1250341654        0.2966361729       -0.9006491052
 C         -4.8940562508       -1.2834618461        0.5040269619
 C         -3.7303575059       -1.9919305012        0.7141093683
 N         -1.3531257567       -3.3968932757        1.1247267424
 C         -0.2179699769       -4.1090659942        1.2552291930
 C         -0.2935991505       -5.4513056235        1.6834143789
 H          0.7863711943       -7.2365413341        2.0850845582
 H          2.9685382850       -6.2935939108        1.4502804595
 H          3.1525849008       -3.9551472745        0.7112801481
 H          1.5345444107       -0.4924048338       -1.4229274739
 H          3.5663462514        0.8632951096       -1.7949581325
 H          5.4363455295       -0.4431410009       -2.7366849850
 H          7.0375620233       -0.0703008198       -4.5711894365
 H          8.9317479681        1.4610240526       -4.3064258691
 H          9.2983088714        2.6562782588       -2.1734112703
 H          9.1254924592        3.6494175308        0.3827258457
 H          8.4577958999        4.1834267760        2.7027583610
 H          6.4426447911        3.1927609775        3.6824167791
 H          5.0437198428        1.6224435461        2.4001833568
 H          5.2742333683       -0.7425745713        1.7791889360
 H          3.2346488343       -2.0569560199        2.1673202995
 H         -1.4788414431        0.3431536493       -0.2292254973
 H         -3.5624345963        1.6129900529       -0.6382745271
 H         -4.5369504804        2.5450963039        1.4060684510
 H         -5.4504705346        4.7475798984        2.0257084188
 H         -7.6754838652        5.4509434675        1.2788782232
 H         -9.0761265542        3.9491538418       -0.0984905498
 H        -10.0864792643        1.8548306986       -1.5616211642
 H        -10.4453147450       -0.2916135615       -2.7355691661
 H         -8.6929630214       -2.0035266551       -2.7724970414
 H         -6.5438140860       -1.6502479620       -1.6210093350
 H         -5.8517554966       -1.7284288493        0.7289751045
 H         -3.7592015730       -3.0016893107        1.0926903395
 H         -1.2658422527       -5.8540712893        1.9209618824
