  102
 
 C         10.5413934868       -2.3312485554       -3.0360669254
 C          9.1786229458       -2.5385401465       -2.9611866815
 C          8.4216395289       -1.8882170518       -1.9990738676
 C          9.0185459569       -1.0266715211       -1.0865153004
 C         10.3970997340       -0.7962343795       -1.1939597885
 C         11.1476352873       -1.4494046440       -2.1541536114
 O         11.0616927094        0.0860700081       -0.3803878341
 C         10.3276368062        0.7454830115        0.5726103254
 C         11.0112428090        1.6252368384        1.3915229312
 C         10.3445904099        2.3046601374        2.3999603683
 C          8.9959712688        2.0821745272        2.5933597602
 C          8.3050840876        1.2030616217        1.7739187334
 C          8.9509280425        0.5392705967        0.7377662767
 N          8.2865377096       -0.3534975908       -0.1059681735
 C          6.9005673203       -0.5733793136        0.0318935532
 C          6.4226913275       -1.8386368666        0.3683833571
 C          5.0671823525       -2.0535163154        0.4994552624
 C          4.1672606762       -1.0074862149        0.3020337252
 C          2.7349477306       -1.2311676128        0.4438533117
 N          2.3161750759       -2.4426236533        0.8223035145
 N          1.0412108416       -2.7180547057        0.8241759461
 C          0.1224845916       -1.8072542598        0.6128724507
 C         -1.2820864471       -2.2047513514        0.5209722272
 C         -1.8665390630       -3.0061557835        1.4976240571
 C         -3.2142377374       -3.3048566483        1.4416234352
 C         -3.9933624627       -2.8161923059        0.3976802189
 N         -5.3836794789       -3.0531496820        0.3619667605
 C         -5.8931803624       -4.3439972500        0.2210138784
 C         -5.0712132286       -5.4589280344        0.1118148392
 C         -5.6126441149       -6.7273115547       -0.0280755683
 C         -6.9814748235       -6.9018102560       -0.0709295039
 C         -7.8150030276       -5.7959877856        0.0063511544
 C         -7.2809027652       -4.5281133954        0.1428262839
 O         -8.1659547388       -3.4796964774        0.1772121402
 C         -7.6494429300       -2.2181732500        0.3321165359
 C         -8.5515302602       -1.1720528299        0.3967793921
 C         -8.1046267601        0.1264365190        0.5902110898
 C         -6.7534065125        0.3673298138        0.7370352779
 C         -5.8439454081       -0.6759345009        0.6633972088
 C         -6.2724412419       -1.9787526388        0.4376704137
 C         -3.3978830860       -2.0671315581       -0.6154116912
 C         -2.0555850932       -1.7663035601       -0.5553524973
 C          0.5468754982       -0.4699261249        0.3786543362
 C         -0.3582711044        0.6391712910        0.2646348404
 C         -1.5653743003        0.6844119324        0.9839968664
 C         -2.4628272225        1.7048895440        0.7838134735
 C         -2.1854939686        2.7184670135       -0.1327466214
 N         -3.1624723690        3.7089834047       -0.3936663089
 C         -4.3666297436        3.3458957875       -0.9903305163
 C         -4.6074431298        2.0546587078       -1.4476895735
 C         -5.8212683807        1.7237142547       -2.0279805671
 C         -6.8108755183        2.6764449796       -2.1693125518
 C         -6.5761108549        3.9765448701       -1.7467509024
 C         -5.3653859467        4.3144692932       -1.1707037816
 O         -5.1903685235        5.6240835429       -0.8019026365
 C         -3.9868308784        5.9698836641       -0.2399970430
 C         -3.8162121239        7.2938462108        0.1191945895
 C         -2.6362693394        7.7085964049        0.7190175108
 C         -1.6373259923        6.7881090117        0.9692888061
 C         -1.8009345173        5.4600001816        0.6098267124
 C         -2.9670955286        5.0328360714       -0.0148817545
 C         -0.9574750580        2.7309632241       -0.7910037585
 C         -0.0523250626        1.7149408666       -0.5845681019
 N          1.8890243832       -0.2631414567        0.2116078988
 C          4.6481052985        0.2590489849       -0.0284779979
 C          6.0025863673        0.4740670842       -0.1664783803
 H         11.1350946336       -2.8387942141       -3.7797102098
 H          8.6890831971       -3.2061322865       -3.6533278682
 H          7.3553675879       -2.0465003875       -1.9631524193
 H         12.2061226223       -1.2486569510       -2.1978816348
 H         12.0681892665        1.7596910312        1.2260310029
 H         10.8851399854        2.9913184636        3.0319431490
 H          8.4674844159        2.5876419484        3.3868419068
 H          7.2555441786        1.0255231723        1.9477705163
 H          7.1240573564       -2.6438477647        0.5304469554
 H          4.6827907255       -3.0264558813        0.7635960408
 H         -1.2619348308       -3.3660104604        2.3161264729
 H         -3.6742892885       -3.8989957981        2.2173483976
 H         -4.0000136876       -5.3335902939        0.1263256383
 H         -4.9514189350       -7.5763860551       -0.1067185011
 H         -7.4070849298       -7.8872243437       -0.1751176045
 H         -8.8874306019       -5.8955450572       -0.0444233072
 H         -9.6015485818       -1.3971728350        0.2996966319
 H         -8.8137645962        0.9373988418        0.6360499678
 H         -6.3957234020        1.3705928396        0.9080092843
 H         -4.7910736409       -0.4765183328        0.7855531155
 H         -4.0009531402       -1.7192157542       -1.4410171580
 H         -1.5962530592       -1.1868448862       -1.3421956217
 H         -1.7816296274       -0.0770411328        1.7176819708
 H         -3.3921750724        1.7316611483        1.3346646097
 H         -3.8377440908        1.3059068312       -1.3467376988
 H         -5.9883023307        0.7127424144       -2.3657510687
 H         -7.7597467730        2.4195805100       -2.6124185433
 H         -7.3212132709        4.7477754514       -1.8595117813
 H         -4.6217064481        7.9842094807       -0.0737577473
 H         -2.5108285836        8.7438167502        0.9942012703
 H         -0.7212850526        7.0953270393        1.4499332955
 H         -1.0221394424        4.7444216576        0.8213718374
 H         -0.7318782411        3.5323656918       -1.4796298829
 H          0.8916672120        1.7092695646       -1.1072696879
 H          3.9418956100        1.0604220843       -0.1805821911
 H          6.3786615574        1.4505269834       -0.4343725693
