  83
 
 C          7.4084726776        2.9318690866        2.2761972567
 C          6.0445835301        3.0539028647        2.4769156535
 C          5.1747180127        2.0950787056        1.9911958887
 C          5.6548096170        0.9805691266        1.3033145624
 C          7.0364566273        0.8919740110        1.0655209940
 C          7.9011379628        1.8545517334        1.5566418633
 O          7.5850709615       -0.1206604756        0.3275873229
 C          6.7357433869       -1.0644628385       -0.1820878336
 C          7.3044694287       -2.0791723350       -0.9327967696
 C          6.5128979479       -3.0937672539       -1.4467889001
 C          5.1548721957       -3.1006043027       -1.1824675592
 C          4.5797752198       -2.0918888749       -0.4310074197
 C          5.3520068465       -1.0387063660        0.0589192244
 N          4.8064738993       -0.0048028860        0.8135313787
 C          3.4300339301        0.0278762372        1.0934622828
 C          2.9806529551        0.0095772641        2.4338414716
 C          1.6509113235       -0.0189703539        2.7377467058
 C          0.6948800014       -0.0123660498        1.6867397286
 C          1.1700555317        0.0258233379        0.3301605647
 C          2.4931021997        0.0390629105        0.0314412396
 C          0.0010121049        0.0111029349       -0.6256427112
 C         -0.0674452787        1.1952449936       -1.5580369706
 C         -0.1712731099        2.5308735868       -1.2363058777
 C         -0.2505405878        3.4562262851       -2.2681890957
 C         -0.2287974799        3.0457272205       -3.5929302494
 C         -0.1266584246        1.7033001729       -3.9206568075
 C         -0.0464061871        0.7744726271       -2.8959852539
 C          0.0565975461       -0.6759010950       -2.9200490093
 C          0.1405957037       -1.5699331236       -3.9749223594
 C          0.2416261038       -2.9225781703       -3.6919231555
 C          0.2586090388       -3.3771613834       -2.3815856349
 C          0.1755812804       -2.4868406233       -1.3196131614
 C          0.0728456624       -1.1411863272       -1.5968457081
 C         -1.1713936330       -0.0350501234        0.3250267917
 C         -2.4933737869       -0.0383100203        0.0213667443
 C         -3.4340840622       -0.0612519479        1.0798688088
 N         -4.8094816097       -0.0185993729        0.7962424650
 C         -5.3516130437        1.0394459106        0.0732794010
 C         -4.5769810285        2.1073438392       -0.3796266564
 C         -5.1486716046        3.1400304149       -1.1004955211
 C         -6.5056823158        3.1425643355       -1.3700620011
 C         -7.2997483424        2.1125470710       -0.8918414901
 C         -6.7344234627        1.0738982290       -0.1719299521
 O         -7.5862099311        0.1148659760        0.3040858225
 C         -7.0409935252       -0.9211630307        1.0114190634
 C         -7.9081467839       -1.8981497074        1.4685560770
 C         -7.4188728386       -2.9982437565        2.1552078214
 C         -6.0557977059       -3.1277899170        2.3567567837
 C         -5.1834838937       -2.1547313724        1.9049210382
 C         -5.6602748938       -1.0184278501        1.2512371572
 C         -2.9894369442       -0.0865788881        2.4217216804
 C         -1.6607726653       -0.0683781085        2.7310815973
 C         -0.7010212076       -0.0410539716        1.6838037914
 H          8.0882164549        3.6763450648        2.6591793960
 H          5.6485593688        3.9044109134        3.0099716743
 H          4.1118119706        2.2083287374        2.1310799205
 H          8.9549990113        1.7447841032        1.3570853373
 H          8.3702209407       -2.0582489837       -1.0949199397
 H          6.9621330413       -3.8787296835       -2.0342196539
 H          4.5315080636       -3.8982160328       -1.5558540497
 H          3.5247121249       -2.1226873844       -0.2133741609
 H          3.7217582647       -0.0228617110        3.2206192259
 H          1.3201512887       -0.0643028110        3.7640137114
 H          2.8419842366        0.0839052338       -0.9907123948
 H         -0.1905933403        2.8483404735       -0.2035030075
 H         -0.3310839823        4.5086332340       -2.0372313373
 H         -0.2937678983        3.7838513120       -4.3794858080
 H         -0.1134230378        1.3890836633       -4.9540519820
 H          0.1310666300       -1.2213152594       -4.9972674537
 H          0.3094814502       -3.6339800750       -4.5024921491
 H          0.3383861795       -4.4367096616       -2.1856759345
 H          0.1912081432       -2.8386877030       -0.2979494986
 H         -2.8386302713       -0.0498501420       -1.0029354642
 H         -3.5227406100        2.1304960180       -0.1571168292
 H         -4.5234547694        3.9488039859       -1.4457147094
 H         -6.9522550252        3.9462571121       -1.9337146697
 H         -8.3648938676        2.0975556055       -1.0585378642
 H         -8.9612001743       -1.7811822008        1.2688248244
 H         -8.1005419000       -3.7539370430        2.5118968419
 H         -5.6623184278       -3.9951893757        2.8638471526
 H         -4.1211710188       -2.2733255862        2.0448718116
 H         -3.7332987687       -0.0793443426        3.2065316179
 H         -1.3336440166       -0.0564802315        3.7594440176
