  69
 
 C          7.5327464193       -3.0503918934       -2.1577632965
 C          6.1540605989       -3.1072889940       -2.1905618077
 C          5.3975522414       -2.2242719609       -1.4356482412
 C          6.0088375986       -1.2746088985       -0.6267734014
 C          7.4082900406       -1.2013876927       -0.6288921902
 C          8.1581217135       -2.0874934554       -1.3803302355
 O          8.0992770771       -0.2523780988        0.0819199347
 C          7.3703935979        0.6095221147        0.8615666248
 C          8.0791464977        1.5253554194        1.6174476402
 C          7.4121416566        2.4081898699        2.4532999104
 C          6.0358664739        2.3513718630        2.5447053617
 C          5.3205752866        1.4348205473        1.7899255082
 C          5.9713693040        0.5710755683        0.9176127720
 N          5.2778705694       -0.3595278496        0.1375142701
 C          3.8719228958       -0.3952282143        0.1603396119
 C          3.2144798583       -1.5091775145        0.6536932537
 C          1.8178703152       -1.6138629793        0.7060646813
 C          1.0668537321       -0.5600332843        0.2440029872
 C          1.7343002851        0.5774482208       -0.2690266849
 C          0.8328551485        1.5695119126       -0.7225524870
 C          1.3333619592        2.7245699046       -1.2687190558
 C          2.7294927152        2.8659348994       -1.3595456918
 C          3.6066232885        1.9056742696       -0.9135413724
 C          3.1231790399        0.7106849864       -0.3355401253
 C         -0.4982185331        1.0383087437       -0.4733197066
 N         -1.6581623103        1.5765315746       -0.7162744731
 C         -2.7332107396        0.8231327721       -0.3698076147
 C         -4.0219927006        1.3268603345       -0.6021374313
 C         -5.1411819159        0.5991789539       -0.2703748851
 C         -6.4720657496        1.1405234174       -0.5917104931
 C         -6.8185348844        2.4435056213       -0.2402042115
 C         -8.0796831723        2.9091000317       -0.5720762549
 N         -8.9789835979        2.1858882573       -1.2168484964
 C         -8.6465276203        0.9547020181       -1.5655256261
 C         -7.4176055652        0.3839011355       -1.2816125944
 C         -4.9986983516       -0.6768358101        0.3354238371
 C         -6.1770475453       -1.4442187879        0.7717759539
 C         -7.1746033904       -0.8635966426        1.5528619359
 C         -8.2501350793       -1.6428318005        1.9437451331
 N         -8.3881258109       -2.9161127852        1.6157362691
 C         -7.4378704428       -3.4716213893        0.8836566520
 C         -6.3163308235       -2.7905817050        0.4412622989
 C         -3.7428851603       -1.1910977025        0.5595098570
 C         -2.5900213439       -0.4679587427        0.2166805969
 N         -1.3720729749       -1.0149602724        0.4594547731
 C         -0.3520414128       -0.2776929420        0.1224420934
 H          8.1258295475       -3.7383668912       -2.7390698079
 H          5.6518475099       -3.8367280855       -2.8070180642
 H          4.3209554507       -2.2686202406       -1.4853016871
 H          9.2323890456       -2.0011550641       -1.3479295114
 H          9.1545321731        1.5277195663        1.5395518717
 H          7.9728022139        3.1224344776        3.0351332344
 H          5.5043111997        3.0161432388        3.2078431493
 H          4.2468173053        1.3906042770        1.8824623132
 H          3.8119877924       -2.3300382905        1.0246526221
 H          1.3542671424       -2.4995420882        1.1111536638
 H          0.6794650217        3.5047068006       -1.6258822488
 H          3.1257290545        3.7689136019       -1.8007706798
 H          4.6707468035        2.0640306298       -1.0075286880
 H         -4.1100266904        2.2940642100       -1.0736686777
 H         -6.1216386977        3.0685716704        0.2975381868
 H         -8.3895106665        3.9120691312       -0.3082592542
 H         -9.4064477949        0.3985054262       -2.0985766173
 H         -7.1927633302       -0.6227332300       -1.5995325550
 H         -7.1047807097        0.1693569464        1.8579640656
 H         -9.0444899856       -1.2275766101        2.5499918050
 H         -7.5866378545       -4.5156952996        0.6401177722
 H         -5.5716800152       -3.2847859225       -0.1643714750
 H         -3.6148927037       -2.1545062745        1.0296430025
