  91
 
 C          0.3601935466        5.3445442298        1.1914161222
 C         -0.2361566140        4.6397763687       -0.0328520314
 C          0.2788783509        5.2891529175       -1.3231827027
 C         -1.7429131277        4.6594482714        0.0187796020
 C         -2.5823747477        5.7524510062        0.0481756089
 C         -3.9533188419        5.5472052045        0.1205650864
 C         -4.4683419348        4.2613259134        0.1699291377
 C         -3.6299155093        3.1596377961        0.1368955214
 C         -2.2591136132        3.3545545096        0.0527173825
 C         -1.1524708667        2.4120913974        0.0155291644
 C          0.0599221920        3.1534418047       -0.0127762621
 C          1.3409273262        2.6165149197       -0.0151967550
 C          1.4520244958        1.2284637288        0.0187312148
 C          2.4317579805        0.1594119336        0.0431641324
 C          3.8148797387        0.1569195726        0.0519456444
 C          4.4919557989       -1.0606298432        0.0722155505
 N          5.8958169813       -1.0840277069        0.0677324276
 C          6.6025849842       -0.1836432771       -0.7355351589
 C          6.1059351599        0.1911415318       -1.9848486225
 C          6.8046895056        1.0837109436       -2.7744407677
 C          8.0099861789        1.6122159249       -2.3407676848
 C          8.5084145669        1.2440723473       -1.1012902083
 C          7.8123413621        0.3593398468       -0.3003996150
 C          6.5754576991       -2.0083863243        0.8678384219
 C          7.7503329329       -2.6116036115        0.4173368048
 C          8.4169286374       -3.5217728101        1.2147329096
 C          7.9226641389       -3.8548693127        2.4657950751
 C          6.7521953851       -3.2649882968        2.9153614232
 C          6.0831044196       -2.3472752468        2.1288613351
 C          3.7772843647       -2.2639127837        0.0935465398
 C          2.3950142818       -2.2854946681        0.1009199979
 C          1.7176473001       -1.0802201367        0.0714190610
 N          0.3610702332       -0.8000445981        0.0616348960
 C         -0.9224669076       -1.3157072378        0.0558500931
 C         -1.3575290863       -2.6283109845        0.0730306110
 C         -2.7165314029       -2.8767409808        0.0496695620
 C         -3.6406420599       -1.8293769210       -0.0189324814
 N         -5.0157594869       -2.1040119838       -0.0622601508
 C         -5.4936172648       -3.1899171944       -0.8024093471
 C         -6.5881431356       -3.9273786436       -0.3487147734
 C         -7.0596235128       -4.9989187181       -1.0820481124
 C         -6.4466523734       -5.3609049755       -2.2709615159
 C         -5.3563762406       -4.6356526465       -2.7240758574
 C         -4.8834551912       -3.5565182142       -2.0027019760
 C         -5.9088571046       -1.2629061944        0.6128949818
 C         -5.5728020209       -0.7287680123        1.8575443672
 C         -6.4475297401        0.1154335337        2.5137251098
 C         -7.6722075411        0.4343893364        1.9490624754
 C         -8.0144298865       -0.0983752965        0.7165180658
 C         -7.1420901061       -0.9361150010        0.0482787490
 C         -3.2026278837       -0.5067216201       -0.0410954100
 C         -1.8498185908       -0.2240558177        0.0188265870
 C         -1.0786392157        1.0126138932        0.0185760311
 C          0.2364034719        0.5546793415        0.0321036160
 H          0.0772286949        6.3943954960        1.1961323136
 H          1.4452103961        5.2777590308        1.1769840607
 H         -0.0047777996        4.8821246287        2.1065174509
 H         -0.0063407636        6.3379838934       -1.3558518652
 H         -0.1427505163        4.7872128216       -2.1919643246
 H          1.3627888395        5.2214888256       -1.3751962235
 H         -2.1855472723        6.7569145370        0.0194122980
 H         -4.6229871361        6.3948317573        0.1447533633
 H         -5.5368724749        4.1132569014        0.2368032204
 H         -4.0488750492        2.1690515072        0.1882026777
 H          2.2076929983        3.2590421046       -0.0379642546
 H          4.3670798081        1.0846274791        0.0404537380
 H          5.1712069055       -0.2250733349       -2.3317123173
 H          6.4083688273        1.3614682853       -3.7405447040
 H          8.5556331191        2.3056528774       -2.9631035775
 H          9.4434422388        1.6560640532       -0.7497942802
 H          8.1997510363        0.0840249265        0.6698512917
 H          8.1330946730       -2.3631816399       -0.5619834296
 H          9.3249745698       -3.9813280313        0.8517026335
 H          8.4452654675       -4.5684513579        3.0851034276
 H          6.3606788884       -3.5144884824        3.8910535118
 H          5.1753606916       -1.8829684710        2.4863122497
 H          4.3251965152       -3.1944576169        0.1035845519
 H          1.8648335274       -3.2249246306        0.1175066854
 H         -0.6541371602       -3.4453471213        0.1121612363
 H         -3.0761609106       -3.8944191339        0.0772666925
 H         -7.0627020318       -3.6543078190        0.5827322656
 H         -7.9067536429       -5.5615614713       -0.7169416979
 H         -6.8156426008       -6.2012879272       -2.8395561673
 H         -4.8746220524       -4.9064415962       -3.6526397509
 H         -4.0396630561       -2.9875061880       -2.3654607153
 H         -4.6211685380       -0.9799601694        2.3032944547
 H         -6.1725012408        0.5220300539        3.4762029084
 H         -8.3540063877        1.0934157931        2.4654356762
 H         -8.9648464536        0.1480868659        0.2654475594
 H         -7.4073155263       -1.3399208690       -0.9181385662
 H         -3.9341476099        0.2809078073       -0.1128962692
