  45
 
 O          3.8778107814       -2.8155366297       -1.3607426097
 S          2.9686162579       -1.7155195663       -1.5345703976
 O          2.4681341238       -1.4240929088       -2.8487729426
 C          3.7303711049       -0.2305808954       -0.8606642005
 C          4.7455536030       -0.3468987974        0.0715024828
 C          5.2519594111        0.8128587065        0.6368837197
 C          4.6967009466        2.0246516061        0.2469275838
 N          3.7286448411        2.1323144530       -0.6480011252
 C          3.2582109470        1.0273105481       -1.1980147717
 C          1.5932636247       -1.8850413144       -0.3934430421
 C          1.6922654784       -2.7207597134        0.7016602685
 C          0.6632431469       -2.7264302667        1.6310880533
 C         -0.4200143075       -1.8789536454        1.4781704013
 C         -0.5106089651       -1.0365661711        0.3693130204
 N         -1.5872494805       -0.1482507024        0.2253968730
 C         -1.3510889916        1.2270446612        0.0860866972
 C         -0.0807966760        1.7814220862        0.1818019273
 C          0.1180077444        3.1450766824        0.0288933743
 C         -0.9551751811        3.9821371031       -0.2004311702
 C         -2.2356768091        3.4524479097       -0.2511503632
 C         -2.4368584631        2.0921099275       -0.1016487635
 O         -3.7357510920        1.6517535036       -0.1251255473
 C         -3.9498141014        0.3011791467       -0.0189414924
 C         -5.2611307931       -0.1317727121       -0.0948740637
 C         -5.5566607774       -1.4850415065       -0.0341414626
 C         -4.5298308318       -2.4002367448        0.0787629654
 C         -3.2136789494       -1.9710235896        0.1584813491
 C         -2.9041054458       -0.6173038576        0.1394850936
 C          0.5060240843       -1.0604558128       -0.5834745904
 H          5.1221534164       -1.3271257433        0.3215799636
 H          6.0503553260        0.7786836048        1.3611822390
 H          5.0441454623        2.9590866519        0.6671701823
 H          2.4840804334        1.1455618840       -1.9427957538
 H          2.5585104993       -3.3545082296        0.8015860051
 H          0.7160699371       -3.3767467108        2.4908256419
 H         -1.2013594244       -1.8553710848        2.2231939093
 H          0.7692736511        1.1486424933        0.3852128260
 H          1.1219755146        3.5354789115        0.0880869194
 H         -0.8083118508        5.0427541242       -0.3278659649
 H         -3.0988780223        4.0803871163       -0.4034339343
 H         -6.0364484390        0.6087475894       -0.2086811891
 H         -6.5823866672       -1.8131883010       -0.0900289653
 H         -4.7406829508       -3.4581645163        0.1015113672
 H         -2.4207513696       -2.6993416517        0.2234527941
 H          0.4518862532       -0.4507336373       -1.4714543075
