  94
 
 C         -3.1025599091        0.8511651343       -0.1409013908
 C         -4.2795085287        1.4938708556       -0.2172243252
 C         -5.5955652222        0.9004558403       -0.1143993761
 C         -5.8192461963       -0.4588706650        0.1327202406
 C         -7.0940820748       -0.9706133492        0.2193925172
 C         -8.2091349022       -0.1440104192        0.0582062946
 N         -9.5011980728       -0.6647740863        0.1433112849
 C        -10.5323882368        0.0970113779        0.7086094313
 C        -11.8187614221        0.0537735283        0.1708177993
 C        -12.8348752791        0.8010919419        0.7348223789
 C        -12.5864865925        1.6077160796        1.8337980400
 C        -11.3095635857        1.6570776763        2.3697608667
 C        -10.2889834516        0.9063322846        1.8184771727
 C         -9.7738613276       -1.9511348330       -0.3412912840
 C         -9.1691211520       -2.4096582563       -1.5117058682
 C         -9.4407706828       -3.6794695210       -1.9838617747
 C        -10.3217420578       -4.5071715961       -1.3063107814
 C        -10.9293337268       -4.0544233463       -0.1461310321
 C        -10.6571033892       -2.7895514689        0.3388391556
 C         -7.9996266631        1.2146234808       -0.1883612021
 C         -6.7212772234        1.7193332818       -0.2672941445
 C         -1.7856296792        1.4451209960       -0.2467205138
 C         -1.5624224385        2.8095028839       -0.4599412197
 C         -0.2839738827        3.3158790995       -0.5512792167
 C          0.8316332201        2.4846535643       -0.4433494941
 C          2.1918983608        3.0243440942       -0.5517029491
 C          3.1826645622        2.3287802421       -1.2460859529
 C          4.4631915425        2.8293055404       -1.3476581735
 C          4.8056088518        4.0444250281       -0.7524623698
 C          6.1442003527        4.6143968055       -0.8758904769
 C          7.3114336878        3.9618313508       -0.8594983091
 C          7.5374138250        2.5494735372       -0.5696033104
 C          6.8125676866        1.8667933854        0.4089862026
 C          7.0653101460        0.5405982181        0.6853322682
 C          8.0596100950       -0.1524535340       -0.0078532169
 N          8.3138238908       -1.5012659396        0.2640346587
 C          8.2438195835       -1.9775205261        1.5786887928
 C          8.6823595019       -1.1876765523        2.6419138173
 C          8.6096842356       -1.6608644656        3.9379334437
 C          8.1097271510       -2.9271067195        4.1966667284
 C          7.6760156339       -3.7173203312        3.1442694533
 C          7.7357610166       -3.2491756245        1.8457564371
 C          8.6368949528       -2.3738795356       -0.7823415143
 C          8.0191109817       -2.2451578551       -2.0266780332
 C          8.3425460266       -3.1059977680       -3.0578047356
 C          9.2759682388       -4.1120412811       -2.8662830785
 C          9.8902190692       -4.2467884193       -1.6314577043
 C          9.5805912826       -3.3845494318       -0.5971895625
 C          8.8026529169        0.5291289519       -0.9726704030
 C          8.5494357107        1.8580771906       -1.2380617428
 C          3.8083315217        4.7517165093       -0.0797325840
 C          2.5280084610        4.2480475226        0.0261881948
 C          0.6162223099        1.1227568106       -0.2318869174
 C         -0.6620712258        0.6177466843       -0.1339538859
 H         -3.0936285081       -0.2197924891        0.0147682999
 H         -4.2883166816        2.5645493134       -0.3754550774
 H         -4.9834369880       -1.1269861605        0.2714484834
 H         -7.2404341754       -2.0220695603        0.4209311932
 H        -12.0131237436       -0.5669890982       -0.6918346505
 H        -13.8260856493        0.7593205021        0.3070142785
 H        -13.3821442229        2.1933115534        2.2694436449
 H        -11.1074293186        2.2782175626        3.2303827352
 H         -9.2968666059        0.9390772249        2.2450939133
 H         -8.4896320950       -1.7622531618       -2.0471004228
 H         -8.9673482571       -4.0216691507       -2.8927658938
 H        -10.5335908583       -5.4976425087       -1.6802638200
 H        -11.6141109713       -4.6942850128        0.3914659929
 H        -11.1250200452       -2.4417953189        1.2484882219
 H         -8.8496134480        1.8680660947       -0.3221716275
 H         -6.5835726694        2.7734322134       -0.4647226864
 H         -2.3990047452        3.4842890800       -0.5586927251
 H         -0.1425493798        4.3715718034       -0.7346915198
 H          2.9348912076        1.3967536344       -1.7337155145
 H          5.2098843536        2.2852316170       -1.9070553031
 H          6.1622952582        5.6896982621       -1.0136589770
 H          8.2136972070        4.5266257577       -1.0662999415
 H          6.0444442041        2.3875920750        0.9607474602
 H          6.4911560083        0.0281037414        1.4436603448
 H          9.0824873482       -0.2039613741        2.4431631934
 H          8.9553197978       -1.0390199074        4.7511069838
 H          8.0583971935       -3.2950776043        5.2104765212
 H          7.2787621738       -4.7037089653        3.3358782842
 H          7.3876890776       -3.8645990901        1.0288003912
 H          7.2830259902       -1.4684331042       -2.1757793210
 H          7.8544117955       -2.9959427077       -4.0154688775
 H          9.5228736715       -4.7857342895       -3.6731192835
 H         10.6235288170       -5.0245460574       -1.4739939018
 H         10.0685827913       -3.4859738445        0.3613946879
 H          9.5862756459        0.0091986578       -1.5048439813
 H          9.1388860899        2.3721809065       -1.9844596721
 H          4.0507912552        5.7001753898        0.3799609707
 H          1.7806528658        4.8003580207        0.5777925933
 H          1.4632091783        0.4601946257       -0.1237851825
 H         -0.8027714601       -0.4410230014        0.0369215498
