  101
 
 C          4.9649926048       -2.1149405101       -0.4695406965
 C          5.9112122670       -0.9817425623       -0.2108623112
 C          7.2810605512       -1.1860198980       -0.2382687114
 C          8.1678468219       -0.1426750019        0.0074593869
 N          9.5497263824       -0.3737794939       -0.0280371051
 C         10.2384104481       -1.0000033984       -1.0474194478
 C          9.7730320597       -1.4841549322       -2.2616848744
 C         10.6910055845       -2.0507302703       -3.1249334108
 C         12.0433014090       -2.1301763044       -2.7994837784
 C         12.5160805577       -1.6284227951       -1.6035414717
 C         11.6126922824       -1.0538777479       -0.7191825853
 C         11.7492791430       -0.4312379801        0.5675479862
 C         12.8306985670       -0.2011585632        1.4077985727
 C         12.6061845458        0.4198603164        2.6199759213
 C         11.3212671848        0.7968600967        3.0045422410
 C         10.2297509934        0.5791392275        2.1859903404
 C         10.4524627081       -0.0233108436        0.9560757580
 C          7.6739781061        1.1263469935        0.2893394898
 C          6.3087576725        1.3333939714        0.3269215354
 C          5.4217396468        0.2945431302        0.0781881028
 C          3.9627902307        0.5441597894        0.1335476390
 C          3.2609992372        0.2514778002        1.2953318410
 C          1.9013436651        0.4801979577        1.3809882897
 C          1.2246882183        0.9971404537        0.2825680984
 N         -0.1597473426        1.2252364078        0.3488271252
 C         -0.7993663447        2.4092067260        0.0329559217
 C         -0.2636771369        3.6189540336       -0.3838049917
 C         -1.1377292020        4.6639210272       -0.6152894699
 C         -2.5111909180        4.5186755732       -0.4324613727
 C         -3.0475765204        3.3237115485        0.0038035932
 C         -2.1885980358        2.2598938164        0.2452662211
 C         -2.3865990588        0.9140926477        0.7080882424
 C         -3.5113640225        0.1897327616        1.0636170441
 C         -3.3562498980       -1.1350775106        1.4598889431
 C         -4.5013597582       -1.9625797739        1.8931069064
 O         -4.3689103779       -2.8959568979        2.6632575970
 C         -5.8388060359       -1.6033120404        1.3504444971
 C         -6.0132693539       -1.1777370170        0.0348892502
 C         -7.2751747705       -0.8808413384       -0.4392443696
 C         -8.3836348490       -0.9930617663        0.3970646154
 N         -9.6674965211       -0.6639385831       -0.0830214703
 C        -10.6719938458       -1.6331912105       -0.1511871046
 C        -10.4432053306       -2.9634085479        0.1770727372
 C        -11.4621592384       -3.9003186643        0.0944024498
 C        -12.7216276660       -3.5267581528       -0.3279365165
 C        -12.9576536983       -2.2087540277       -0.6903319076
 C        -11.9448486691       -1.2713855701       -0.6117830626
 O        -12.2462738022        0.0049557044       -1.0190463025
 C        -11.2459268278        0.9423404015       -0.9564103406
 C        -11.5638998829        2.2244767657       -1.3635800343
 C        -10.6165483364        3.2357507629       -1.2994125032
 C         -9.3576490202        2.9566640877       -0.8086373254
 C         -9.0329091120        1.6715891463       -0.4009534467
 C         -9.9598602656        0.6405277834       -0.4881308998
 C         -8.2156849503       -1.4358014200        1.7071318491
 C         -6.9553944590       -1.7504977598        2.1709715100
 C         -2.0767140207       -1.7128393300        1.5020672382
 C         -0.9478707404       -1.0118496250        1.1446962228
 C         -1.1030989677        0.3151450481        0.7584890227
 C          1.9225355152        1.2873507612       -0.8845389735
 C          3.2889828721        1.0738164326       -0.9700800389
 C          4.0364058437        1.3973765478       -2.2276861800
 H          4.1993765635       -1.8231421209       -1.1867576732
 H          5.4961619248       -2.9830548579       -0.8514059896
 H          4.4573354788       -2.3993409702        0.4518222055
 H          7.6726942475       -2.1728885481       -0.4380821322
 H          8.7298612421       -1.4112975749       -2.5306320721
 H         10.3530493723       -2.4377262856       -4.0751023043
 H         12.7286498440       -2.5835150357       -3.5001282792
 H         13.5662988297       -1.6755430415       -1.3578848836
 H         13.8239578621       -0.5077775444        1.1162999038
 H         13.4335936007        0.6101401307        3.2872892219
 H         11.1744319445        1.2667632915        3.9659673658
 H          9.2355447364        0.8590842885        2.5004522740
 H          8.3583131073        1.9424412640        0.4642531490
 H          5.9194923695        2.3162610370        0.5509722218
 H          3.7938702915       -0.1488478880        2.1455990871
 H          1.3653591902        0.2731853317        2.2946636737
 H          0.8004939787        3.7451522315       -0.5130215930
 H         -0.7468220348        5.6158356736       -0.9428047124
 H         -3.1607222965        5.3586996709       -0.6277712092
 H         -4.1102337583        3.2151207247        0.1599454557
 H         -4.4839588982        0.6579114231        1.0569652305
 H         -5.1618504916       -1.1075259242       -0.6259764072
 H         -7.4139892722       -0.5633340769       -1.4623580297
 H         -9.4593182105       -3.2731461522        0.4925561020
 H        -11.2568742355       -4.9256059498        0.3609820787
 H        -13.5188409694       -4.2505467553       -0.3894419964
 H        -13.9243600164       -1.8870525458       -1.0434620375
 H        -12.5630162448        2.4122709303       -1.7229331345
 H        -10.8733753167        4.2323665154       -1.6219009110
 H         -8.6153498102        3.7365132872       -0.7338107642
 H         -8.0505379954        1.4714937271       -0.0028384505
 H         -9.0771792343       -1.5272304988        2.3519644677
 H         -6.8123955813       -2.0991015174        3.1827632147
 H         -2.0024256660       -2.7419880781        1.8196761712
 H          0.0249298864       -1.4791050577        1.1594277086
 H          1.3840695233        1.6723955156       -1.7384967123
 H          4.7184254454        2.2298700136       -2.0574008791
 H          3.3516122959        1.6681205939       -3.0272664676
 H          4.6365741589        0.5471455898       -2.5479473788
