  78
 
 C         -3.5569653856       -3.3619790022       -1.6706844919
 C         -3.6219851350       -2.0720859258       -0.9163653699
 C         -4.8127088234       -1.3729992701       -0.8913100883
 C         -4.9298344699       -0.1530643426       -0.2316735734
 N         -6.1829276262        0.5367883404       -0.2178097335
 C         -6.4022134171        1.4839921417       -1.2031604533
 C         -5.4209604226        1.7046982781       -2.1770348683
 C         -5.5906198635        2.6420443518       -3.1760812670
 C         -6.7509856301        3.3949562806       -3.2426367545
 C         -7.7365490932        3.1903797747       -2.2961789169
 C         -7.5706794673        2.2504620549       -1.2897726202
 S         -8.9108224751        2.0948406899       -0.1499920012
 C         -8.3436109183        0.8010504611        0.9103613046
 C         -9.2174263528        0.4150633489        1.9160164668
 C         -8.8700798100       -0.5770195857        2.8126780841
 C         -7.6295380694       -1.1814663608        2.6965963879
 C         -6.7568768846       -0.8022230923        1.6965387396
 C         -7.0890738779        0.1951271573        0.7719277244
 C         -3.8250154955        0.3856522334        0.4176642770
 C         -2.6316656431       -0.2972370259        0.4009718827
 C         -2.4896499446       -1.5331992527       -0.2566001557
 C         -1.2135144765       -2.2091465864       -0.2339322030
 C         -0.0070253839       -1.5274893149       -0.0875362009
 C          1.1891688784       -2.2410891883       -0.0428433284
 C          2.4755058769       -1.5949943178        0.0731721607
 C          2.6357866347       -0.2788782108       -0.3985202667
 C          3.8400379465        0.3803283660       -0.3222251447
 C          4.9378822870       -0.2642656695        0.2360988292
 N          6.2023663271        0.3999676779        0.3141341208
 C          7.1007735682        0.1858441451       -0.7176087099
 C          6.7503315041       -0.6665347878       -1.7714601919
 C          7.6149624110       -0.9164332966       -2.8180972223
 C          8.8653933434       -0.3223379453       -2.8532152508
 C          9.2305906189        0.5290227464       -1.8281832998
 C          8.3648487817        0.7849633520       -0.7751509393
 S          8.9545658350        1.9098033506        0.4523925804
 C          7.6201612020        1.9244546825        1.6092646554
 C          7.8036161096        2.7111977425        2.7367329015
 C          6.8241595469        2.7955778177        3.7075633283
 C          5.6522073947        2.0766036198        3.5421487458
 C          5.4649937387        1.2915099813        2.4222966259
 C          6.4395763423        1.1955246102        1.4218231762
 C          4.8025709584       -1.5647891078        0.7130168548
 C          3.6007100554       -2.2413158591        0.6426104122
 C          3.5169724198       -3.6257661878        1.2023949997
 N          1.1302560642       -3.6105129889       -0.1210415232
 C         -0.0271594211       -4.1912783996       -0.2804548829
 N         -1.1755459101       -3.5762656913       -0.3536252018
 H         -4.4939770149       -3.5483335089       -2.1911583221
 H         -3.3567806212       -4.1878786788       -0.9909102561
 H         -2.7470708465       -3.3388064065       -2.3977985901
 H         -5.6807391946       -1.7733794298       -1.3968049279
 H         -4.5124321790        1.1252813726       -2.1422393513
 H         -4.8084311472        2.7814510372       -3.9064597594
 H         -6.8900398987        4.1296624617       -4.0196393954
 H         -8.6540561813        3.7586164575       -2.3216357400
 H        -10.1745075940        0.9100213423        1.9823246914
 H         -9.5575564327       -0.8695259385        3.5902897883
 H         -7.3338739642       -1.9554211503        3.3880990688
 H         -5.7947315422       -1.2828816321        1.6230764340
 H         -3.9154596251        1.3278591621        0.9382105297
 H         -1.7931824285        0.1154870585        0.9401364671
 H          0.0009553032       -0.4524892406       -0.0095403599
 H          1.8027078863        0.2209569974       -0.8677916768
 H          3.9443232221        1.3865477698       -0.7011204980
 H          5.7802804321       -1.1366972588       -1.7624317152
 H          7.3052030567       -1.5809933315       -3.6099369731
 H          9.5467433455       -0.5146380456       -3.6666304633
 H         10.1956196495        1.0128635445       -1.8285101873
 H          8.7299058258        3.2564509572        2.8369785838
 H          6.9768559324        3.4118774111        4.5791846889
 H          4.8746089005        2.1235098910        4.2890457725
 H          4.5476570045        0.7360330872        2.3113480249
 H          5.6653871805       -2.0478606233        1.1506341498
 H          2.7084082199       -3.6962164006        1.9279191590
 H          4.4517004746       -3.8994626032        1.6871563284
 H          3.3035122909       -4.3414032059        0.4108200254
 H         -0.0352996931       -5.2715494933       -0.3585367845
