  110
 
 O          0.0177563818       -4.8241685408        0.1089094434
 C          0.0057323215       -3.6039823680        0.0780043089
 C         -1.2684879843       -2.8447140240        0.0727604407
 C         -1.3914851876       -1.6087550386        0.7077198801
 C         -2.6061986575       -0.9507723854        0.7156462181
 C         -3.7101705734       -1.5128199793        0.0808938032
 N         -4.9640872357       -0.8271027860        0.0780205159
 C         -5.8351873515       -1.1534539402        1.1154957384
 C         -5.3967632890       -2.0613650367        2.0925298174
 C         -6.2049396229       -2.4308402145        3.1464530621
 C         -7.4829673035       -1.9087907119        3.2684717413
 C         -7.9205712658       -1.0134410742        2.3150404191
 C         -7.1262260043       -0.6217362066        1.2422156896
 Si        -7.8068815539        0.6076513234        0.0023899632
 C         -8.2950923767        2.2394182199        0.8364329049
 C         -7.7512739631        2.6082380985        2.0637343050
 C         -8.0945085707        3.8048529963        2.6674128542
 C         -8.9905707191        4.6611060240        2.0487596701
 C         -9.5399559755        4.3117658105        0.8260291879
 C         -9.1935239501        3.1125526531        0.2295085303
 C         -9.3027715042       -0.0896111435       -0.9339501268
 C        -10.5886494129        0.0147604652       -0.4105076980
 C        -11.6797716055       -0.5048899283       -1.0837131576
 C        -11.5032899857       -1.1432292839       -2.3004456326
 C        -10.2313075867       -1.2559047458       -2.8371289747
 C         -9.1446872759       -0.7352858271       -2.1571552727
 C         -6.3355566471        0.8186713220       -1.1391057016
 C         -6.4251235347        1.7115423374       -2.2022525086
 C         -5.3961835447        1.8915089845       -3.1028363641
 C         -4.2376892366        1.1488528128       -2.9382226747
 C         -4.1198767809        0.2610701045       -1.8902634374
 C         -5.1577494587        0.0789411885       -0.9625262812
 C         -3.5955761109       -2.7499546091       -0.5456596533
 C         -2.3857111537       -3.4146790803       -0.5374461695
 C          1.2644868479       -2.8203931311        0.0416816263
 C          1.3583688730       -1.6094573052       -0.6449242057
 C          2.5605334044       -0.9308835848       -0.6929860005
 C          3.6815642516       -1.4468892031       -0.0482020183
 N          4.9265789634       -0.7464533232       -0.0889695973
 C          5.1358366286        0.1819319575        0.9287242642
 C          4.0913201338        0.4251753789        1.8344851881
 C          4.2239561176        1.3386011978        2.8583936453
 C          5.4039064931        2.0477187044        3.0184552988
 C          6.4386292087        1.8087373540        2.1384631017
 C          6.3341893419        0.8896143779        1.0994585275
 Si         7.8090560155        0.5967476317       -0.0195883949
 C          9.2328822854       -0.2485598992        0.9082687858
 C          9.4338929878       -1.6231478395        0.8179185727
 C         10.4679602421       -2.2414182198        1.4984583326
 C         11.3222029315       -1.4919376317        2.2903158104
 C         11.1359714131       -0.1230276915        2.3944323390
 C         10.1008861882        0.4881943462        1.7099608268
 C          8.4307509021        2.2105637712       -0.7962000981
 C          9.7583074270        2.3551528653       -1.1884632538
 C         10.2080679538        3.5256492370       -1.7732723477
 C          9.3317780407        4.5786336294       -1.9780852112
 C          8.0064437176        4.4520586475       -1.5952764966
 C          7.5638897042        3.2785416739       -1.0114931622
 C          7.0639239948       -0.5527863833       -1.2979534546
 C          7.8218451544       -0.9204366808       -2.4049859546
 C          7.3504566592       -1.7931947348       -3.3634272624
 C          6.0771354730       -2.3182707069       -3.2092012073
 C          5.3010532308       -1.9641800667       -2.1261550072
 C          5.7695314623       -1.0703452554       -1.1502698225
 C          3.5953960818       -2.6575034989        0.6314345225
 C          2.3975877605       -3.3433854836        0.6641954068
 H         -0.5435638684       -1.1763661823        1.2166278830
 H         -2.7107575418        0.0025110723        1.2117644186
 H         -4.4082598087       -2.4896850242        2.0348748182
 H         -5.8301415841       -3.1323386256        3.8782133272
 H         -8.1195107360       -2.1963942165        4.0919209587
 H         -8.9119522343       -0.5913642704        2.3937220410
 H         -7.0542221221        1.9422877966        2.5528380189
 H         -7.6641035278        4.0716501904        3.6226284928
 H         -9.2611495731        5.5963390227        2.5182115730
 H        -10.2410583265        4.9752832042        0.3389452355
 H         -9.6327164020        2.8438500984       -0.7211277516
 H        -10.7364883748        0.5182079082        0.5347243416
 H        -12.6705349024       -0.4115904899       -0.6609700424
 H        -12.3541513112       -1.5489323313       -2.8292829580
 H        -10.0877517285       -1.7505075836       -3.7877732577
 H         -8.1549526578       -0.8223367330       -2.5832587157
 H         -7.3405671667        2.2737103210       -2.3170024258
 H         -5.4916756725        2.5903442066       -3.9204733881
 H         -3.4163771588        1.2597633996       -3.6318091567
 H         -3.2035009120       -0.3004533326       -1.7984470161
 H         -4.4592719186       -3.1828891796       -1.0275671401
 H         -2.2830173103       -4.3798733127       -1.0110142354
 H          0.4977796432       -1.2135178204       -1.1620908281
 H          2.6429211428        0.0019727464       -1.2305175368
 H          3.1573757163       -0.1067186237        1.7428413562
 H          3.3968677013        1.4976528883        3.5355002795
 H          5.5108838644        2.7668275347        3.8169140677
 H          7.3682562376        2.3482008242        2.2475170906
 H          8.7736995248       -2.2129570809        0.1972813104
 H         10.6093474679       -3.3097853376        1.4115057304
 H         12.1313453468       -1.9718781464        2.8224904078
 H         11.8002634739        0.4675069278        3.0100981736
 H          9.9673256268        1.5577204337        1.7913360090
 H         10.4496877669        1.5394991086       -1.0278114916
 H         11.2437260123        3.6186524771       -2.0697645597
 H          9.6808334276        5.4945294269       -2.4336942813
 H          7.3184447373        5.2712187933       -1.7518615905
 H          6.5297572377        3.1869254530       -0.7101603190
 H          8.8145832601       -0.5047600682       -2.5013245823
 H          7.9596446507       -2.0654359418       -4.2124261127
 H          5.6804391921       -3.0097927753       -3.9389044430
 H          4.3149788466       -2.3940618773       -2.0442243288
 H          4.4713057764       -3.0538711834        1.1226186686
 H          2.3172150146       -4.2896272469        1.1785253644
