  48
 
 N          4.9357730836       -5.0410391318       -0.2533195993
 C          4.1754363357       -4.1850343407       -0.2061677721
 C          3.2345688017       -3.1301479523       -0.1521103928
 C          3.2312827978       -2.2536711891        0.9337824266
 C          2.3118583833       -1.2260043819        0.9835682972
 C          1.3903052833       -1.0673746050       -0.0486076726
 N          0.4815864075        0.0025184032       -0.0108828880
 C          0.8275286310        1.3398803612       -0.0211180404
 C          2.1842287997        1.8570229474       -0.0758326159
 C          2.4424922626        3.0667188606        0.5729496574
 C          3.7043631557        3.6232755871        0.5541355035
 C          4.7199858167        2.9692175495       -0.1251932125
 Br         6.4699208712        3.7194803549       -0.1451886964
 C          4.4817311389        1.7834657397       -0.7990433161
 C          3.2147913039        1.2323269707       -0.7773211810
 N         -0.2240142711        2.1173787290        0.0062442209
 C         -1.3037490352        1.2946379375        0.0295577842
 C         -2.6788027217        1.6608142905        0.0199002364
 C         -3.0705539092        3.0025433970       -0.0257082351
 C         -4.4018418261        3.3331995822       -0.0715772405
 C         -5.3585282319        2.3201034369       -0.0767504358
 C         -4.9839104817        0.9977120063       -0.0258994372
 C         -3.6337859723        0.6191940399        0.0320720629
 C         -3.2055281416       -0.7661861238        0.1247312535
 C         -4.1307520066       -1.8149102861        0.2245556117
 C         -3.7377104647       -3.1251165417        0.3614548350
 C         -2.3855719772       -3.4452900916        0.4251740428
 C         -1.4466340252       -2.4488255959        0.3219696694
 C         -1.8254838354       -1.1099630257        0.1488377494
 C         -0.8958692127       -0.0378654959        0.0327660065
 C          1.3945691624       -1.9413247908       -1.1357636065
 C          2.3108597176       -2.9704706264       -1.1873995296
 H          3.9470203763       -2.3864211248        1.7308622319
 H          2.2990385133       -0.5404713525        1.8174846918
 H          1.6332447223        3.5585586551        1.0886935659
 H          3.9021197738        4.5548840019        1.0614314025
 H          5.2775890514        1.2982968282       -1.3430387210
 H          3.0321321796        0.3266188409       -1.3346811366
 H         -2.2971799728        3.7547338450       -0.0314094222
 H         -4.7099961277        4.3673952113       -0.1090245270
 H         -6.4073425362        2.5753369810       -0.1211766755
 H         -5.7600669126        0.2492562506       -0.0354407855
 H         -5.1868571898       -1.6007747511        0.2054239763
 H         -4.4802234383       -3.9056153967        0.4353567360
 H         -2.0745398401       -4.4704270707        0.5603702445
 H         -0.4006428967       -2.7013156847        0.3958145758
 H          0.6749836987       -1.8047620639       -1.9294990745
 H          2.3221717589       -3.6515601845       -2.0249815681
