  72
 
 C         -2.4102191869        5.0585095225        0.1533452839
 C         -1.6508723574        3.7686462129        0.1901621284
 C         -0.2615016539        3.7577604551        0.2532192132
 C          0.4383992876        2.5708888906        0.2802984186
 C         -0.2259739198        1.3406019193        0.2640160683
 C         -1.6172557539        1.3410959920        0.1489723572
 C         -2.3023939421        2.5479112748        0.1230387891
 C         -2.4113688914        0.0647483485        0.0334512715
 C         -3.3964028286       -0.0521290614        1.1848465863
 C         -3.1250603208       -0.1417252379        2.5322587417
 C         -4.1905388747       -0.2382057068        3.4181433635
 C         -5.4983446886       -0.2443742333        2.9568305314
 C         -5.7752725664       -0.1559497663        1.6013905567
 C         -4.7164720937       -0.0592738267        0.7131595379
 C         -4.6895929945        0.0453956808       -0.7387700418
 C         -5.7156110659        0.0775694737       -1.6690486852
 C         -5.3901837782        0.1805803152       -3.0127145573
 C         -4.0667875402        0.2526557943       -3.4207026896
 C         -3.0340879677        0.2231782141       -2.4921284853
 C         -3.3525672106        0.1189747007       -1.1559474307
 C         -1.5334590266       -1.1600430306       -0.0171246910
 C         -2.1410177046       -2.3987048915       -0.1700350487
 C         -1.4216543152       -3.5822932250       -0.1439467386
 C         -2.0985728619       -4.9076961801       -0.3084415523
 C         -0.0525434254       -3.5018571054        0.0876600517
 C          0.5709601733       -2.2825603128        0.2422652818
 C         -0.1493249932       -1.0874075221        0.1506431666
 N          0.4942399902        0.1443266005        0.2869071054
 C          1.8823377106        0.1820872970        0.4826774905
 C          2.3989719279        0.6930840711        1.6675863122
 C          3.7663451122        0.7617969074        1.9448347802
 C          4.6525045485        0.3182220334        0.9845810046
 C          4.1339294839       -0.1841398607       -0.2358729332
 C          5.1568792056       -0.5680039361       -1.1350156876
 C          4.8140056284       -1.0522067564       -2.3756411939
 C          3.4485414859       -1.1360988506       -2.6972949946
 C          2.4530421055       -0.7679531598       -1.8213384717
 C          2.7731439472       -0.2789437767       -0.5339657689
 C          6.4089663739       -0.3147279978       -0.4484875887
 N          7.6177361534       -0.5195122920       -0.8869065613
 C          8.5557388081       -0.1665546967        0.0198118797
 N          9.8636982748       -0.2353094890       -0.0768193867
 O         10.3401912360        0.2334206956        1.0838769847
 N          9.3810301557        0.6090468754        1.9428641131
 C          8.2407549027        0.3806081210        1.3279876710
 N          6.9837680757        0.5894592179        1.7667376930
 C          6.0867192224        0.2407061274        0.8798374358
 H         -2.3747012061        5.4840239423       -0.8502797020
 H         -1.9729263130        5.7826339494        0.8378611918
 H         -3.4525493905        4.9024676094        0.4198038436
 H          0.2822686247        4.6909038215        0.2740140815
 H          1.5166245355        2.6004674540        0.3044193247
 H         -3.3797501404        2.5250884248        0.0446915654
 H         -2.1069095052       -0.1393814024        2.8941432683
 H         -3.9978478591       -0.3090774113        4.4787846145
 H         -6.3118063485       -0.3199000129        3.6640739351
 H         -6.7957269703       -0.1619190120        1.2477205229
 H         -6.7478525738        0.0224853150       -1.3561501811
 H         -6.1777323275        0.2057429237       -3.7521473287
 H         -3.8360681494        0.3327959227       -4.4730590877
 H         -2.0043875636        0.2837494715       -2.8133702278
 H         -3.2123917443       -2.4312238747       -0.3066871280
 H         -3.0755651165       -4.7891211253       -0.7702626878
 H         -2.2361325246       -5.3802836004        0.6648474386
 H         -1.4946765430       -5.5748473414       -0.9203739025
 H          0.5345153796       -4.4059662718        0.1559786633
 H          1.6298598989       -2.2609185669        0.4461768934
 H          1.7012903049        1.0404948602        2.4160525190
 H          4.1150253673        1.1437326393        2.8911652437
 H          5.5686642164       -1.3527799491       -3.0853257372
 H          3.1749302903       -1.5027764463       -3.6750230409
 H          1.4190268109       -0.8519951450       -2.1182553931
