72
 xtb: 6.7.1 (edcfbbe)
C            3.10616901260053        3.33044377945930        1.58206803577771
C            1.92659854325835        2.44973350726553        1.32304803441275
C            1.78932294252287        1.23944504524990        1.99665850061418
C            0.70832865824074        0.40892041373715        1.78211385465339
C            0.55986803328287       -0.82465664943436        2.61595790902470
C           -0.27080974964176        0.74232454083526        0.80026970612411
B           -1.30241238284159       -0.32138388760116        0.32353733700508
C           -0.84761739282003       -1.72428925938639       -0.06916988194838
C           -1.72988163913821       -2.83552249185548       -0.00897817193217
C           -1.32265247904866       -4.13027477829487       -0.17291369631709
C            0.02324722481468       -4.41824105406544       -0.45200508360424
C            0.91874394040504       -3.37383460587277       -0.56394622749410
C            0.51847476690938       -2.05065100854641       -0.41344612700303
N            1.49878364480675       -1.06440426942093       -0.57754926787752
C            2.72364081845981       -1.05026605063631        0.05869733191944
C            3.22676185095277       -1.90056561456322        1.03604661906805
C            4.49355546378148       -1.64804040743825        1.52849274179422
C            5.25489187574506       -0.57839496634168        1.06160404168319
C            4.76423300193790        0.27014141005315        0.08473826470838
C            3.49431929932737        0.03902470716803       -0.41965666167253
C            2.70070677475177        0.68302797632611       -1.43014980404121
C            2.93128962281254        1.74542207356241       -2.29026944244452
C            1.96477300751096        2.05907048208919       -3.22895531485981
C            0.79328805520602        1.31372586073244       -3.32666354155812
C            0.54047360922344        0.25447901118148       -2.47390977849332
C            1.48875871549340       -0.04187029482156       -1.50767515526322
C           -2.85092118917240        0.03290610530572        0.26338380522800
C           -3.47668001069904        0.62921577642723        1.37686635265272
C           -2.73026698854753        0.90113426469943        2.64970868545961
C           -4.82763632262913        0.93279711253896        1.34621203745835
C           -5.61447098678221        0.66906748908964        0.23204066369764
C           -7.07086566010916        1.03120817093640        0.22971507490906
C           -4.99967141475423        0.08829223995008       -0.86148013514615
C           -3.64473440608404       -0.22802954343834       -0.86467199888217
C           -3.09626639094555       -0.77616186337467       -2.15241290432896
C           -0.19196930814803        2.03682951896064        0.22090098443345
C           -1.27723605436406        2.51981617016412       -0.68905758749891
C            0.90011408176431        2.84194341546945        0.46137688322300
H            3.17907422429287        4.11772254396178        0.83415873524062
H            4.02504629715636        2.74201165317346        1.56972843737079
H            3.02477609944021        3.79506373301236        2.56386187644995
H            2.54569074437735        0.95280968958663        2.71457305019649
H            0.57824632298614       -1.72140906972752        2.00236326856295
H            1.35425958080069       -0.88563568283116        3.35502957830130
H           -0.40163091236759       -0.81515220777325        3.12936605121815
H           -2.76892456477667       -2.62931540986731        0.21584599481547
H           -2.03622128693841       -4.93832939319080       -0.08547570668388
H            0.34407637354624       -5.43559387372461       -0.60635263339393
H            1.94610224497848       -3.57314114132850       -0.83288390974820
H            2.65088855345911       -2.73530418244222        1.40585180966015
H            4.90229975134738       -2.29512047908515        2.29168826219327
H            6.24240972693014       -0.41546910984385        1.46850019333381
H            5.35846599953181        1.09299758206101       -0.28200397561572
H            3.85278569102567        2.30472938941502       -2.23639094453351
H            2.12792873519785        2.87939622897844       -3.91141521500729
H            0.07126618217336        1.56185259712572       -4.09021480878762
H           -0.35782537576675       -0.33301304122787       -2.56211935021709
H           -3.31781835400819        1.53228161392579        3.31543234468722
H           -1.78135582200423        1.39614542403293        2.44836237427858
H           -2.51989713524417       -0.03435590929846        3.16495761627599
H           -5.28840648232441        1.37499369315580        2.22209792496940
H           -7.52581709863171        0.78173671385904       -0.74149670234173
H           -7.21978705406946        2.08044381269495        0.44900267200000
H           -7.60102839232040        0.43467949852198        1.01017778226603
H           -5.58046977553658       -0.10767861161981       -1.75242946907120
H           -2.19432080180278       -1.35098870113324       -1.98863899653277
H           -3.83210814832309       -1.40656273220210       -2.64149212583290
H           -2.86576071807280        0.05218070543292       -2.83359282990898
H           -0.98358621925882        3.44493322123252       -1.18532205824068
H           -1.49864882342001        1.76844512840851       -1.44260937023535
H           -2.19112401612107        2.70104731425091       -0.12760741601617
H            0.97240443015455        3.80214343373460       -0.03461344018029
