  88
 
 O          8.6273103627       -2.9145317948        1.3922278257
 C          7.9597593683       -2.1195610485        0.7486244051
 C          8.5714729863       -0.9442646932        0.0890047669
 C          8.0713976257       -0.4219242210       -1.1039655942
 C          8.6935255007        0.6603904144       -1.6989811639
 C          9.8106324262        1.2343675108       -1.1118434762
 C         10.3214060815        0.7120386476        0.0666186134
 C          9.7125774183       -0.3779070503        0.6583029103
 C          6.4906954137       -2.2971478481        0.6056083577
 C          5.9765118911       -3.6167205732        0.5990378931
 C          4.6372672654       -3.8527536701        0.5036006257
 C          3.7357256694       -2.7679355569        0.4281554831
 N          2.4176004045       -2.9955431644        0.3316704642
 C          1.6084424998       -1.9525353168        0.2775962422
 C          0.1865039882       -2.1727937702        0.1612678155
 C         -0.3059346442       -3.4817062557        0.1025778930
 C         -1.6501864913       -3.7276240704       -0.0280508188
 C         -2.5397068092       -2.6519449183       -0.1155634645
 N         -3.9218080020       -2.8858069836       -0.2597183505
 C         -4.4120777998       -3.5810686572       -1.3700240466
 C         -3.5890758932       -3.9931682732       -2.4116633820
 C         -4.1082405938       -4.6754975338       -3.5014617965
 C         -5.4598642514       -4.9464548941       -3.5772556284
 C         -6.3006478018       -4.5110840241       -2.5634932902
 C         -5.7871842880       -3.8291122135       -1.4754099586
 O         -6.6889333384       -3.4003221328       -0.5301132270
 C         -6.1927984882       -2.7104761128        0.5506624613
 C         -7.1105804306       -2.2925888769        1.4972309796
 C         -6.6876737606       -1.6195358054        2.6339466805
 C         -5.3400276799       -1.3872521963        2.8229393637
 C         -4.4164753178       -1.8037922414        1.8761503202
 C         -4.8255033466       -2.4495373748        0.7150027758
 C         -2.0626418881       -1.3517711746       -0.0566025051
 C         -0.7017501854       -1.0792026266        0.0968016519
 C         -0.1855898847        0.2813706315        0.1762282753
 C         -1.0247219537        1.3977083241        0.1779343654
 C         -0.5172891452        2.6860677506        0.2393056744
 N         -1.3962871979        3.7878137735        0.2293021308
 C         -2.2389659194        4.0210217719       -0.8627346398
 C         -2.2367525111        3.2124453226       -1.9935133239
 C         -3.0839855897        3.4752391116       -3.0594379391
 C         -3.9391055528        4.5582678665       -3.0218528774
 C         -3.9308159127        5.3949590071       -1.9155140646
 C         -3.0874416757        5.1366127213       -0.8502727827
 O         -3.1170354502        6.0313175752        0.1933885518
 C         -2.2829150601        5.7880721298        1.2591604334
 C         -2.3360180956        6.6850679054        2.3103930711
 C         -1.5500724951        6.4908878040        3.4368357192
 C         -0.7294673725        5.3830952816        3.5092279135
 C         -0.6729026910        4.4815053094        2.4571964533
 C         -1.4266244595        4.6799501027        1.3062683490
 C          0.8643146823        2.8903669390        0.3096783750
 C          1.7059874082        1.8058715612        0.3315584427
 C          1.2038681714        0.5011030233        0.2708331445
 C          2.1181951958       -0.6160764955        0.3187026352
 N          3.4139708889       -0.3809806311        0.4073379118
 C          4.2447404427       -1.4348654916        0.4617810252
 C          5.6347281473       -1.2222110957        0.5494465845
 H          7.2136225568       -0.8789303044       -1.5747610846
 H          8.3058222526        1.0572343997       -2.6254472300
 H         10.2880627490        2.0839026310       -1.5772593701
 H         11.1967368228        1.1517180067        0.5210251782
 H         10.0981748748       -0.8024774273        1.5739834525
 H          6.6822872002       -4.4315194384        0.6688002479
 H          4.2356387106       -4.8540989368        0.4892990522
 H          0.4039567982       -4.2906728046        0.1705714176
 H         -2.0276990445       -4.7383163766       -0.0600272537
 H         -2.5337285311       -3.7739763801       -2.3758419270
 H         -3.4435614006       -4.9881996017       -4.2920921777
 H         -5.8687630782       -5.4809551667       -4.4201050566
 H         -7.3644117841       -4.6865141111       -2.5998778933
 H         -8.1533441832       -2.5104668251        1.3274228290
 H         -7.4112841923       -1.2949843971        3.3649591818
 H         -4.9917175486       -0.8838496573        3.7117183627
 H         -3.3658239835       -1.6332721079        2.0501409946
 H         -2.7782434025       -0.5504849995       -0.1459280630
 H         -2.0959166748        1.2814665662        0.1444158209
 H         -1.5597790023        2.3747596860       -2.0490017627
 H         -3.0626605947        2.8256406732       -3.9210531753
 H         -4.6032764381        4.7660646191       -3.8458458808
 H         -4.5698584068        6.2623214581       -1.8610415971
 H         -3.0046656634        7.5276426031        2.2288487555
 H         -1.5951655839        7.1980285812        4.2499819325
 H         -0.1277261925        5.2056387171        4.3873619532
 H         -0.0404166433        3.6116090103        2.5369030907
 H          1.2556028487        3.8957629500        0.3440196546
 H          2.7754089971        1.9323672841        0.3893546505
 H          5.9931946763       -0.2052803492        0.5953426425
