59

C     -2.654548   -0.094271   -2.544091
C     -1.243311   -0.047531   -2.051273
S     -0.000036   -0.000821   -3.226234
C      1.243240    0.046280   -2.051290
C      2.654472    0.093054   -2.544121
C      0.720998    0.030932   -0.768914
P      1.707605    0.081167    0.799823
C      2.985968    1.325758    0.453151
C      4.353131    1.048065    0.310262
C      5.275825    2.068858    0.056046
C      4.848076    3.388330   -0.056131
C      3.497590    3.689141    0.085430
C      2.577370    2.668158    0.339361
C      2.542562   -1.524855    0.922665
C      2.313770   -2.592588    0.042538
C      2.961476   -3.821663    0.209524
C      3.837031   -4.013394    1.273733
C      4.057881   -2.980161    2.177830
C      3.409746   -1.753136    2.008076
C     -0.721066   -0.031896   -0.768902
P     -1.707654   -0.081613    0.799861
C     -2.986571   -1.325693    0.453447
C     -2.578565   -2.668276    0.339715
C     -3.499258   -3.688882    0.085989
C     -4.849633   -3.387503   -0.055418
C     -5.276800   -2.067841    0.056710
C     -4.353634   -1.047427    0.310723
C     -2.541947    1.524773    0.922531
C     -2.313031    2.592190    0.042054
C     -2.960221    3.821552    0.208924
C     -3.835381    4.013885    1.273346
C     -4.056358    2.980960    2.177763
C     -3.408742    1.753645    2.008125
H     -3.032865   -1.120738   -2.517911
H     -2.738879    0.259927   -3.577767
H     -3.309404    0.544154   -1.945950
H      3.032613    1.119597   -2.518341
H      3.309448   -0.545010   -1.945733
H      2.738858   -0.261538   -3.577657
H      4.731030    0.031540    0.374473
H      6.329928    1.828094   -0.056241
H      5.565707    4.180007   -0.253652
H      3.155455    4.717127    0.000045
H      1.526421    2.934347    0.446998
H      1.621423   -2.497221   -0.789776
H      2.772159   -4.630634   -0.491555
H      4.336571   -4.969562    1.404087
H      4.728447   -3.126863    3.020476
H      3.591646   -0.967658    2.740582
H     -1.527717   -2.934908    0.447229
H     -3.157580   -4.717023    0.000639
H     -5.567628   -4.178888   -0.252781
H     -6.330812   -1.826631   -0.055458
H     -4.731091   -0.030741    0.374904
H     -1.620990    2.496348   -0.790456
H     -2.770827    4.630270   -0.492428
H     -4.334517    4.970277    1.403604
H     -4.726633    3.128122    3.020556
H     -3.590751    0.968410    2.740861
