  93
 
 C          8.2324155252        0.2340275309       -1.7460316081
 C          7.6385197796       -0.1504903260       -0.3774891278
 C          8.7079625152       -0.0179779494        0.7231900945
 C          6.4989822400        0.7931083325       -0.0547087306
 C          6.7426999446        2.1573706816        0.0254807469
 C          5.7483599878        3.0625552734        0.3472461961
 C          4.4721061308        2.6001786628        0.6246672272
 C          4.2024742738        1.2521269477        0.5551080882
 C          5.1971503139        0.3325932491        0.1922605431
 N          4.8891712321       -1.0118569444        0.0988788803
 C          3.5453429587       -1.4198658320        0.3192871475
 C          3.1956573086       -2.1668412455        1.4462595980
 C          1.8832763345       -2.5064601095        1.6731281605
 C          0.8706721532       -2.0598683795        0.8057304806
 C         -0.5262361166       -2.3539706942        1.0849661993
 O         -0.8635313773       -3.4068162666        1.6924358640
 C         -1.5059944014       -1.3731317981        0.6463350757
 C         -2.8305644644       -1.7549636749        0.3831267989
 C         -3.7634470504       -0.8110719854       -0.0105171886
 N         -5.0715765429       -1.2180522809       -0.3101704749
 C         -5.7649913747       -0.9245876937       -1.4646713721
 C         -5.3567220400       -0.2137823130       -2.5851570322
 C         -6.2554614492       -0.0795880799       -3.6265862853
 C         -7.5274451696       -0.6432257946       -3.5661185724
 C         -7.9314352383       -1.3722037446       -2.4629620823
 C         -7.0468937979       -1.5210893745       -1.4052230449
 C         -7.1167042731       -2.2097591725       -0.1448158591
 C         -8.1036108382       -2.9555432073        0.4828536302
 C         -7.8409095633       -3.4776799921        1.7357081239
 C         -6.6190822353       -3.2525902250        2.3654281254
 C         -5.6211035950       -2.5112453221        1.7615958749
 C         -5.8720649334       -2.0022614841        0.4945454573
 C         -3.4133251932        0.5343055983       -0.1417871713
 C         -2.1129298429        0.9278385036        0.1794983686
 N         -1.7634358846        2.2869185033        0.1761524760
 C         -0.5866276493        2.8180791025       -0.3124210942
 C          0.4380508584        2.2053186379       -1.0212307648
 C          1.5189807236        2.9786241340       -1.3986871918
 C          1.5800963034        4.3376939427       -1.1005184065
 C          0.5480585571        4.9628448149       -0.4274299830
 C         -0.5435461951        4.2035743459       -0.0303067916
 C         -1.7575336183        4.5133912912        0.6726781774
 C         -2.2707660891        5.6829301105        1.2148912137
 C         -3.4819156627        5.6290845355        1.8771913332
 C         -4.1669674853        4.4246635706        2.0167197858
 C         -3.6765451870        3.2478973800        1.4831365890
 C         -2.4753436026        3.2999447569        0.7891145711
 C         -1.1754250969       -0.0086044342        0.5771186459
 C          1.2473275540       -1.3803558465       -0.3662423334
 C          2.5610180412       -1.0635093704       -0.6051243364
 C          5.8400230978       -1.9560277934       -0.2335341346
 C          5.4607814232       -3.2973740289       -0.3837023723
 C          6.3909725185       -4.2660921219       -0.6853895361
 C          7.7215846913       -3.9172172596       -0.8527184163
 C          8.0945839824       -2.5905984744       -0.7407474772
 C          7.1782284218       -1.5915246687       -0.4431519924
 H          9.0635368732       -0.4158450568       -2.0040992909
 H          7.4717621475        0.1418911589       -2.5189813641
 H          8.5923887428        1.2587574864       -1.7387010607
 H          8.2838727124       -0.2934997550        1.6868722708
 H          9.5537774711       -0.6689673079        0.5213112864
 H          9.0715955090        1.0035961011        0.7881581926
 H          7.7371141548        2.5306925747       -0.1659396068
 H          5.9714022641        4.1173066990        0.3937088836
 H          3.6846072547        3.2871543616        0.8944726907
 H          3.2100051727        0.9009677039        0.7860615255
 H          3.9667302364       -2.4622960815        2.1432077901
 H          1.6009515117       -3.0806510304        2.5417424892
 H         -3.0976441926       -2.7979405686        0.4476123661
 H         -4.3658500494        0.2092270209       -2.6489931563
 H         -5.9628627047        0.4708616840       -4.5084595718
 H         -8.2017670566       -0.5148327141       -4.3996288711
 H         -8.9122528920       -1.8213826492       -2.4240683712
 H         -9.0557964774       -3.1198124126        0.0013913789
 H         -8.5945348913       -4.0640881088        2.2398460814
 H         -6.4474616189       -3.6650713576        3.3483340270
 H         -4.6810272804       -2.3340230994        2.2605355796
 H         -4.1436081726        1.2594035782       -0.4620619813
 H          0.3941765011        1.1593292040       -1.2764130684
 H          2.3352960064        2.5201573979       -1.9370654054
 H          2.4437142026        4.9072732055       -1.4103678207
 H          0.5856945546        6.0200195146       -0.2116688665
 H         -1.7286592279        6.6120013661        1.1231958226
 H         -3.9005638006        6.5278697352        2.3047021372
 H         -5.1010425535        4.4079368813        2.5583796896
 H         -4.2062595952        2.3181009255        1.6207994308
 H         -0.2009115038        0.3250178846        0.8981468422
 H          0.4927020805       -1.1335199182       -1.0983434527
 H          2.8476164794       -0.5395574309       -1.5059976076
 H          4.4243176306       -3.5708895025       -0.2677605473
 H          6.0773910294       -5.2931791032       -0.7926343574
 H          8.4606151573       -4.6694412666       -1.0815046696
 H          9.1312039789       -2.3320408752       -0.8938872498
