  72
 
 C         -0.7761553864        5.2835963695       -1.1819082730
 C         -1.0085561358        3.8158544186       -1.0259604818
 C         -1.9448182130        3.3272162567       -0.1140929141
 C         -2.1748270194        1.9759526172        0.0337486389
 C         -3.2130990700        1.5104093888        1.0050346282
 C         -1.4067725303        1.0352594441       -0.6992535301
 B         -1.3986518940       -0.4830719642       -0.3256395756
 C         -0.1075772919       -1.2298278079       -0.0449809720
 C         -0.0378515800       -2.6510480922       -0.1507097012
 C          1.1223117041       -3.3644167840       -0.0876754726
 C          2.3326412243       -2.6815015965        0.1243171321
 Br         3.9764598202       -3.6612470908        0.2600839886
 C          2.3378875067       -1.3075903597        0.2924535555
 C          1.1591691007       -0.5844326639        0.2426215077
 N          1.2571280082        0.7986767095        0.4360189707
 C          0.6503825149        1.5319578411        1.4376042135
 C         -0.1775384704        1.1000149882        2.4624564928
 C         -0.6210704096        2.0390442367        3.3753036491
 C         -0.2449728129        3.3759529753        3.2802114492
 C          0.6119793082        3.8056632795        2.2824860530
 C          1.0719588326        2.8795720109        1.3597532312
 C          2.0110508119        2.9484687128        0.2719079374
 C          2.7695286464        3.9731734904       -0.2702130538
 C          3.6203007906        3.6832136829       -1.3234849823
 C          3.7190240208        2.3892087575       -1.8300977503
 C          2.9726968956        1.3508938165       -1.3038060873
 C          2.1143472862        1.6349844403       -0.2482350697
 C         -2.7802235006       -1.2747264139       -0.2663388272
 C         -3.6589137746       -1.2232099498       -1.3633613644
 C         -3.3064584648       -0.4626885420       -2.6065579695
 C         -4.8552696798       -1.9212471874       -1.3364466841
 C         -5.2327607934       -2.6835575278       -0.2382864471
 C         -6.5413370408       -3.4169137501       -0.2314667529
 C         -4.3681874119       -2.7300915152        0.8396404775
 C         -3.1594106355       -2.0403376075        0.8448771391
 C         -2.3494502769       -2.1246444107        2.1075073066
 C         -0.5587828144        1.5396664833       -1.7197143368
 C          0.0930422834        0.6369176104       -2.7225070057
 C         -0.3496156657        2.9013639814       -1.8394277512
 H         -1.0397844023        5.8165464025       -0.2714337016
 H          0.2654039394        5.4803011791       -1.4273922714
 H         -1.3906613977        5.6766915854       -1.9938594785
 H         -2.4997780564        4.0289870661        0.4931791916
 H         -3.5842772248        2.3401210675        1.6019681444
 H         -2.7987407083        0.7532141552        1.6649399224
 H         -4.0512397729        1.0593188092        0.4747782712
 H         -0.9636706733       -3.1793460856       -0.3260062373
 H          1.1257024154       -4.4382085862       -0.2016474850
 H          3.2632084732       -0.7954222520        0.5163513206
 H         -0.4532298759        0.0624742830        2.5499937025
 H         -1.2668809038        1.7277630006        4.1828412729
 H         -0.6142504619        4.0819970323        4.0093226587
 H          0.9267124661        4.8366928433        2.2290607903
 H          2.6989886692        4.9756206194        0.1237521166
 H          4.2210741826        4.4679251058       -1.7591577018
 H          4.3940333307        2.1916975401       -2.6498848940
 H          3.0586638533        0.3508766348       -1.7003894960
 H         -2.4122000334       -0.8867039520       -3.0602827075
 H         -3.1014375700        0.5803399057       -2.3730280789
 H         -4.1174650208       -0.5057705649       -3.3304561111
 H         -5.5077665141       -1.8830945264       -2.1988859006
 H         -6.6370940822       -4.0334630586        0.6592372082
 H         -7.3712154450       -2.7099373886       -0.2537710883
 H         -6.6256038476       -4.0560996230       -1.1099424546
 H         -4.6386820020       -3.3053336276        1.7155286163
 H         -2.3264687432       -3.1491363170        2.4764264821
 H         -1.3292629938       -1.7944663667        1.9449215835
 H         -2.8032297639       -1.5045202685        2.8826097885
 H         -0.5412139175        0.5670544236       -3.6076990580
 H          1.0517051321        1.0425932725       -3.0381876710
 H          0.2324392104       -0.3664316318       -2.3305760245
 H          0.3367593997        3.2645562617       -2.5923728522
