  89
 
 C         -2.4832919110       -5.8159369127       -2.0596811824
 C         -3.2799214003       -5.8959436707       -0.9279817741
 C         -3.6812132985       -4.7489250909       -0.2714923007
 C         -3.2926882454       -3.4942845826       -0.7468063954
 N         -3.6910752865       -2.3317044028       -0.0831638643
 C         -4.9513431411       -2.2602825162        0.5177396397
 C         -6.0617155852       -2.8503134757       -0.0887929516
 C         -7.3028166564       -2.7754803203        0.5127288049
 C         -7.4589398371       -2.1111371627        1.7194828396
 C         -6.3598290967       -1.5218275859        2.3244223600
 C         -5.1139096392       -1.5932527058        1.7333041697
 C         -2.8314389112       -1.2281954666       -0.0268226042
 C         -1.4663723537       -1.4181187485        0.1192503882
 C         -0.5660208780       -0.3307816059        0.1465843047
 C          0.8480890186       -0.5274989394        0.2616108609
 C          1.4636818083       -1.7738509998       -0.0479562834
 C          2.8103034746       -1.9428305072        0.0039631243
 C          3.6874452125       -0.8752383238        0.3622674045
 C          5.0708721710       -1.1120203522        0.3507489853
 N          5.5909476780       -2.3538555697        0.3098216416
 C          6.9212021006       -2.2157044922        0.4249089777
 C          7.9284172055       -3.1896848533        0.4473188004
 C          9.2361079126       -2.7639473026        0.5349905216
 C          9.5650034880       -1.4080977868        0.5937339173
 C          8.5863201492       -0.4215557653        0.5827519149
 C          7.2716173265       -0.8347336185        0.5172609551
 N          6.0821973180       -0.1446647663        0.4603924956
 C          5.9839234416        1.2402134267        0.2706551831
 C          5.3000082238        1.7528435392       -0.8319072105
 C          5.2308602705        3.1185692099       -1.0254703018
 C          5.8502794524        3.9845813304       -0.1370666841
 C          6.5369523089        3.4767322334        0.9540490740
 C          6.6057746582        2.1112695400        1.1621593467
 C          3.0713179962        0.3499955361        0.7474005377
 C          1.7214197058        0.5093291978        0.6917171573
 C         -1.1269142033        0.9628906074        0.0537979772
 C         -2.4920731880        1.1557015511       -0.0905365063
 N         -3.0081132090        2.4514413016       -0.2186903080
 C         -4.2352444748        2.7712474126        0.3700422409
 C         -4.5753125603        2.2473435860        1.6185324272
 C         -5.7882580231        2.5644684560        2.1973801837
 C         -6.6780987556        3.4053898476        1.5475197687
 C         -6.3449297051        3.9293199444        0.3080697531
 C         -5.1356238984        3.6162171011       -0.2812978551
 C         -2.3061011984        3.4165023418       -0.9449668909
 C         -1.5873038808        3.0605892687       -2.0882647571
 C         -0.8898901086        4.0188377168       -2.7971713104
 C         -0.9003610756        5.3428792823       -2.3862895174
 C         -1.6140274192        5.7025392617       -1.2534787919
 C         -2.3107523616        4.7514098274       -0.5341323325
 C         -3.3613597337        0.0616853723       -0.1360098350
 C         -2.4961621863       -3.4198285145       -1.8918514995
 C         -2.0943714877       -4.5733021709       -2.5360288291
 H         -2.1675353003       -6.7149828736       -2.5667620600
 H         -3.5825003432       -6.8600177663       -0.5466497755
 H         -4.2859477581       -4.8160171663        0.6207636889
 H         -5.9434130941       -3.3568700901       -1.0353319246
 H         -8.1552198977       -3.2326073053        0.0321903613
 H         -8.4306006717       -2.0546661299        2.1861723818
 H         -6.4723498867       -1.0123615977        3.2696233449
 H         -4.2538289523       -1.1493579268        2.2116938936
 H         -1.0978765815       -2.4225843320        0.2499546324
 H          0.8519570725       -2.6017071694       -0.3732670712
 H          3.2650364643       -2.8869001752       -0.2539817563
 H          7.6706958151       -4.2358060087        0.3916567471
 H         10.0327423429       -3.4942777508        0.5527462611
 H         10.6041253772       -1.1181502452        0.6472099516
 H          8.8517790303        0.6249140301        0.6154664620
 H          4.8248735784        1.0708586440       -1.5221136378
 H          4.6970380579        3.5087934356       -1.8794002829
 H          5.7970228286        5.0512625487       -0.2943864034
 H          7.0179425785        4.1465200954        1.6518654159
 H          7.1233232660        1.7111901502        2.0219365541
 H          3.6821193469        1.1521175948        1.1337249509
 H          1.3030247118        1.4451173301        1.0319107687
 H         -0.4837203054        1.8276448400        0.0701699112
 H         -3.8750881110        1.6051198619        2.1311754584
 H         -6.0367756104        2.1612048298        3.1675679378
 H         -7.6245360953        3.6519260348        2.0042673730
 H         -7.0347943670        4.5812022199       -0.2072852221
 H         -4.8822970240        4.0147931228       -1.2526632273
 H         -1.5870422247        2.0318372116       -2.4166724024
 H         -0.3406980266        3.7309207075       -3.6815162162
 H         -0.3554675997        6.0889591091       -2.9445535428
 H         -1.6208196507        6.7305361671       -0.9221961104
 H         -2.8534357449        5.0312397604        0.3567750530
 H         -4.4193774982        0.2083136084       -0.2823486447
 H         -2.2011534946       -2.4532474117       -2.2724931357
 H         -1.4787208141       -4.5011841752       -3.4205251784
