  107
 
 C         -9.3373484923       -4.9370088819       -0.2243908823
 C         -8.0577043465       -5.0158950114       -1.0705469317
 C         -8.4246303445       -5.1175033464       -2.5587200144
 C         -7.3023145312       -6.2893839235       -0.6781900370
 C         -7.2372883711       -3.7551550012       -0.8456843102
 C         -5.9479844482       -3.7695678258       -0.3252721340
 C         -5.2339924064       -2.6019287807       -0.1287900085
 C         -5.7869473275       -1.3689888308       -0.4596880240
 N         -5.0706894447       -0.1782206689       -0.2532781704
 C         -3.7161002221       -0.1089427627       -0.5347689007
 C         -2.8741395105        0.7287516223        0.2064243638
 C         -1.5283836674        0.7964653529       -0.0728923535
 C         -0.9725117211        0.0521921938       -1.1155387830
 C          0.4578441378        0.1425477360       -1.4126123931
 C          1.3940098452        0.1214754821       -0.4046471335
 C          2.7703492726        0.1845926509       -0.6855903900
 N          3.6614362931        0.1284606367        0.3187531520
 C          4.9433917417        0.1830576082        0.0121309431
 C          5.9214757928        0.1054112175        1.0716664260
 C          5.5474334324       -0.0523692418        2.4113141309
 C          6.5209888490       -0.1230548936        3.3803358490
 C          7.8682549890       -0.0305100812        2.9930929550
 C          8.9699120321       -0.0973594942        3.9649277300
 C         10.2330180556       -0.5197137033        3.5475320924
 C         11.2565632002       -0.5767343548        4.4776916159
 N         11.1057838624       -0.2468077619        5.7511206960
 C          9.9119743455        0.1639262098        6.1454031524
 C          8.8145601589        0.2581712768        5.3043671125
 N          8.2258126233        0.1050013356        1.7256484319
 C          7.2982403350        0.1727463459        0.7791881722
 C          7.7416971609        0.3197136707       -0.6000920929
 N          9.0470442174        0.3848614599       -0.8293710648
 C          9.4943756119        0.5170739968       -2.0683032067
 C         10.9556615133        0.5834386882       -2.2185093480
 C         11.7405931463        1.0098889823       -1.1461495022
 C         13.1137752955        1.0702987745       -1.3091347710
 N         13.7315402727        0.7395545430       -2.4326727215
 C         12.9895975521        0.3245834892       -3.4459792718
 C         11.6081037292        0.2266620947       -3.3981725518
 C          8.6242077773        0.6089070783       -3.1675523052
 C          7.2684764166        0.5426309918       -2.9463897117
 C          6.7922217240        0.3890572814       -1.6389224682
 C          5.3813027375        0.3124550415       -1.3455279727
 N          4.5153314825        0.3609543691       -2.3411676289
 C          3.2112185045        0.2911254632       -2.0407340156
 C          2.2513536519        0.3354581592       -3.0695542159
 C          0.9118014108        0.2610099119       -2.7633491001
 C         -0.0109039556        0.3815927484       -3.8292083349
 N         -0.7097264730        0.5168190369       -4.7295454947
 C         -1.8113500615       -0.7867753598       -1.8508804607
 C         -3.1547257219       -0.8740742125       -1.5632725058
 C         -5.7590556139        0.9516293339        0.2203968929
 C         -6.7346378112        0.8279408309        1.2038104219
 C         -7.4252573547        1.9383546131        1.6537422584
 C         -7.1687069966        3.2083794485        1.1495303447
 C         -7.9047880877        4.4542810655        1.6177291580
 C         -8.9475120800        4.1530117190        2.6985537761
 C         -8.6272892554        5.0890024633        0.4198279630
 C         -6.8874995820        5.4486808597        2.1973105808
 C         -6.1866496231        3.3176436773        0.1660556478
 C         -5.4954676458        2.2177373885       -0.2976789584
 C         -7.0773833316       -1.3402084982       -0.9828334429
 C         -7.7815971386       -2.5122942938       -1.1652302646
 H         -9.9468661090       -4.0828984854       -0.5065730978
 H         -9.9310857946       -5.8387834924       -0.3590392570
 H         -9.0859017748       -4.8434369065        0.8304350714
 H         -7.5231242740       -5.1472065147       -3.1678653090
 H         -8.9948925890       -6.0258460646       -2.7418837309
 H         -9.0241309249       -4.2698850580       -2.8789869254
 H         -6.3940397968       -6.4024570455       -1.2659506301
 H         -7.0458926874       -6.2838834995        0.3788416760
 H         -7.9328853247       -7.1563471771       -0.8654249173
 H         -5.4759779996       -4.6991868802       -0.0523186243
 H         -4.2379630893       -2.6444529665        0.2884160209
 H         -3.2880644600        1.3206950742        1.0089964119
 H         -0.8968599824        1.4537576726        0.5064850546
 H          1.0907386501        0.0279545465        0.6266107913
 H          4.4974600357       -0.1198537222        2.6523087681
 H          6.2548223080       -0.2679525813        4.4148659746
 H         10.3881752408       -0.7941648230        2.5169379557
 H         12.2500950989       -0.9007000830        4.1956417230
 H          9.8344193646        0.4316439883        7.1914864728
 H          7.8735184782        0.6221233102        5.6852135846
 H         11.2675037774        1.2859060936       -0.2179721335
 H         13.7576799244        1.3985226998       -0.5033505126
 H         13.5346733815        0.0568460135       -4.3422489735
 H         11.0640827169       -0.1403178619       -4.2539993980
 H          9.0101234667        0.7503246648       -4.1641150715
 H          6.5560462576        0.6106766361       -3.7543856070
 H          2.5873922735        0.4381046660       -4.0906250083
 H         -1.4020068158       -1.3940634876       -2.6451585102
 H         -3.7854468951       -1.5291996021       -2.1448608607
 H         -6.9534742653       -0.1464257210        1.6164791137
 H         -8.1706036891        1.7913503644        2.4179299595
 H         -8.4825086644        3.7241864415        3.5834236711
 H         -9.4400073245        5.0776073335        2.9933475787
 H         -9.7095562195        3.4706901162        2.3286207850
 H         -9.1730366074        5.9747243105        0.7384504464
 H         -7.9264618744        5.3829159001       -0.3567640839
 H         -9.3356162437        4.3830985449       -0.0097850330
 H         -7.3972763834        6.3424837495        2.5509520342
 H         -6.1557540441        5.7474837137        1.4517030388
 H         -6.3572589754        4.9995046413        3.0350020454
 H         -5.9551343309        4.2806218739       -0.2634072455
 H         -4.7495444920        2.3330021020       -1.0712444780
 H         -7.5238887065       -0.3925675822       -1.2472261387
 H         -8.7782422418       -2.4476488229       -1.5746726211
