  47
 
 C          7.6018286801        0.4583666492       -0.8170940477
 N          6.1650905297        0.4277684167       -0.7442961998
 C          5.2723698707        1.0399179919       -1.5724518132
 N          4.0270058328        0.8402108696       -1.2602683092
 C          4.0591378821        0.0388778410       -0.1467769855
 C          3.0899523272       -0.5397212935        0.6848811836
 C          1.6514969577       -0.3891789141        0.5137665086
 C          1.1247764033        0.3366072261       -0.5577085061
 C         -0.2402505578        0.4659565376       -0.7063177148
 C         -1.1088506946       -0.1259731427        0.2098086804
 N         -2.5033543651        0.0071254795        0.0529090924
 C         -3.3085760644       -1.1171477290       -0.1539247674
 C         -2.7840938191       -2.4003420404       -0.2566817188
 C         -3.6117294516       -3.4929206328       -0.4672265417
 C         -4.9762934826       -3.3231851334       -0.5898418733
 C         -5.5129010504       -2.0456586693       -0.5234559114
 C         -4.6910602592       -0.9531198632       -0.3156238601
 O         -5.2959226613        0.2819254366       -0.2966060299
 C         -4.4900902001        1.3774133311       -0.0926662905
 C         -5.1125481051        2.6117866180       -0.0579826589
 C         -4.3739219743        3.7620089328        0.1784179464
 C         -3.0145698936        3.6625925907        0.3978105964
 C         -2.3859451131        2.4271110606        0.3613895247
 C         -3.1052349712        1.2685937990        0.0920281879
 C         -0.5871909406       -0.8496770349        1.2820451110
 C          0.7765068833       -0.9790695926        1.4307157892
 N          3.5234386583       -1.2847933868        1.7096627692
 C          4.8159244415       -1.4544147728        1.9103724139
 N          5.8224130816       -0.9670318855        1.2042202269
 C          5.4116787682       -0.2242204211        0.1829162806
 H          7.9399638962        0.0653229028       -1.7768946262
 H          7.9652005877        1.4804978537       -0.7001047585
 H          7.9902216965       -0.1610314764       -0.0108040190
 H          5.5869536443        1.6346346889       -2.4087339889
 H          1.7964502217        0.7876581375       -1.2709402284
 H         -0.6455128310        1.0205112692       -1.5397108573
 H         -1.7184385085       -2.5471396045       -0.1800290968
 H         -3.1751652695       -4.4773545395       -0.5374608001
 H         -5.6255112779       -4.1695553414       -0.7495496738
 H         -6.5716997290       -1.8728831254       -0.6365576340
 H         -6.1795119728        2.6493352038       -0.2126026976
 H         -4.8676753606        4.7206967127        0.2006705175
 H         -2.4284974784        4.5449584536        0.6042763535
 H         -1.3261427868        2.3629636221        0.5506694926
 H         -1.2597190948       -1.2989453713        1.9977815686
 H          1.1934347871       -1.5294343905        2.2593592936
 H          5.0865627634       -2.0700422632        2.7586100716
