  48
 
 C          0.8467589672       -2.7891154338       -1.1426870722
 C          0.2517568055       -1.9727246035        0.0364948393
 C          0.6447329982       -2.5483679265        1.4214475939
 C         -1.2517777610       -2.1248916495       -0.0250757426
 C         -1.8059710130       -3.3967633275       -0.0577944104
 C         -3.1740899040       -3.5954994183       -0.0756655118
 C         -4.0256181825       -2.4972389606       -0.0559093664
 C         -3.5068895956       -1.2253878418       -0.0276303148
 C         -2.1160774576       -1.0196851244       -0.0156220519
 N         -1.6037010969        0.2527450287       -0.0024738878
 C         -2.5224961898        1.3442842994        0.0062259303
 C         -2.9467614615        1.8783284178        1.2153129343
 C         -3.8455375867        2.9305848437        1.2201518288
 C         -4.3188113220        3.4468773100        0.0252534476
 C         -3.8935983505        2.9113379690       -1.1793445177
 C         -2.9952864338        1.8590307828       -1.1936345603
 C         -0.2575394149        0.5356675768       -0.0202918983
 C          0.1581343319        1.8611547431       -0.0472063813
 C          1.4930455374        2.1851016444       -0.0603039700
 C          2.4935987054        1.1719557992       -0.0385093781
 C          3.8303933461        1.5218066180       -0.0397348948
 C          4.8546509422        0.5241268944       -0.0121270404
 C          6.2021502209        0.8905383740       -0.0140414978
 N          7.3154136324        1.1916342389       -0.0157872888
 C          4.4746189134       -0.8100697281        0.0172183279
 C          3.1407056220       -1.1709597801        0.0166179707
 C          2.0856017759       -0.2048953843       -0.0119496515
 C          0.7227485872       -0.5371690310       -0.0141829443
 H          0.0625405207       -3.0358930562       -1.8557201790
 H          1.2919814205       -3.7186028400       -0.7966490042
 H          1.6003386942       -2.2191198381       -1.6773720861
 H          0.4274310758       -3.6121094510        1.4693011980
 H          0.0626878290       -2.0475024359        2.1938918146
 H          1.6950166205       -2.3909721360        1.6425359651
 H         -1.1541369186       -4.2567355204       -0.0742646257
 H         -3.5756235853       -4.5963995102       -0.1023770663
 H         -5.0956283807       -2.6389572300       -0.0644189033
 H         -4.1711859048       -0.3754449846       -0.0145311440
 H         -2.5691517835        1.4679930959        2.1399216744
 H         -4.1759317575        3.3471257063        2.1595412871
 H         -5.0194002789        4.2679168154        0.0326973303
 H         -4.2612048153        3.3131417607       -2.1113112739
 H         -2.6548029854        1.4331004506       -2.1255846161
 H         -0.5750398299        2.6526342584       -0.0586826584
 H          1.8018231235        3.2180200132       -0.0828453158
 H          4.1151773854        2.5626179925       -0.0605082768
 H          5.2337206190       -1.5794738768        0.0397345184
 H          2.9229506874       -2.2227416229        0.0354086406
