  88
 
 O          8.6136516188       -2.9729509875        1.2912740915
 C          7.9451255643       -2.1509347800        0.6971969736
 C          8.5541409204       -0.9403505207        0.0919294910
 C          8.0595480926       -0.3673048478       -1.0780652341
 C          8.6828267663        0.7410147072       -1.6215997752
 C          9.7955519833        1.2896377441       -1.0040549903
 C         10.3001788408        0.7167241819        0.1526215721
 C          9.6896089789       -0.3988118955        0.6921798277
 C          6.4737724756       -2.3155129674        0.5496738122
 C          5.9597120995       -3.6340987110        0.4985330235
 C          4.6213329196       -3.8665389617        0.3918858237
 C          3.7206077241       -2.7794904465        0.3509422903
 N          2.4038380287       -3.0037460598        0.2458229645
 C          1.5965134377       -1.9594653082        0.2247152091
 C          0.1739007627       -2.1755337612        0.1085016721
 C         -0.3170346979       -3.4829683622        0.0256691033
 C         -1.6623288207       -3.7272338813       -0.0902636552
 C         -2.5541249159       -2.6511576460       -0.1379555574
 N         -3.9375132339       -2.8858256979       -0.2563164501
 C         -4.4459550149       -3.5796684514       -1.3585861454
 C         -3.6456927161       -3.9598721733       -2.4288147133
 C         -4.1816545432       -4.6450373110       -3.5084928584
 C         -5.5272072910       -4.9498960138       -3.5437018007
 C         -6.3466361435       -4.5445786802       -2.5008652489
 C         -5.8173870109       -3.8591072865       -1.4230765084
 O         -6.6966022667       -3.4599457073       -0.4484231334
 C         -6.1865041357       -2.7642402100        0.6185311378
 C         -7.0854807192       -2.3695209502        1.5921026032
 C         -6.6453639885       -1.6936223285        2.7201078394
 C         -5.2985668355       -1.4352174577        2.8737451518
 C         -4.3931971747       -1.8271627893        1.8994062152
 C         -4.8211997617       -2.4745106301        0.7468555445
 C         -2.0773756208       -1.3522141109       -0.0631341031
 C         -0.7145104682       -1.0816077236        0.0748971016
 C         -0.1965448986        0.2766054950        0.1725746953
 C         -1.0321666780        1.3955509085        0.1758237388
 C         -0.5208948251        2.6806056754        0.2571597175
 N         -1.3937075040        3.7861109238        0.2369773877
 C         -2.1956824885        4.0423026143       -0.8795695842
 C         -2.1770988891        3.2373959163       -2.0118934869
 C         -2.9843743234        3.5241071703       -3.1022808503
 C         -3.8150502364        4.6258002613       -3.0855661456
 C         -3.8217164627        5.4580915161       -1.9762650786
 C         -3.0175997428        5.1775629439       -0.8871222405
 O         -3.0558577467        6.0681954769        0.1560693582
 C         -2.2565971631        5.8081288621        1.2407799478
 C         -2.3111519334        6.7080466328        2.2888699763
 C         -1.5582460986        6.4955955824        3.4341096076
 C         -0.7689013594        5.3675666545        3.5289402555
 C         -0.7092029865        4.4630060688        2.4797451970
 C         -1.4292343918        4.6796409882        1.3115277014
 C          0.8595900928        2.8796983019        0.3530947408
 C          1.6975124947        1.7929313081        0.3698740365
 C          1.1920243963        0.4918167012        0.2810627914
 C          2.1060749152       -0.6263441802        0.3065155504
 N          3.4006353910       -0.3933919479        0.4063444553
 C          4.2297521665       -1.4479876600        0.4304550869
 C          5.6196774506       -1.2392109334        0.5288173162
 H          7.2046254732       -0.8032649931       -1.5738807987
 H          8.3000448933        1.1788491817       -2.5317404049
 H         10.2741205378        2.1593683949       -1.4295850629
 H         11.1728782793        1.1379685452        0.6291334337
 H         10.0729059864       -0.8646999784        1.5878295074
 H          6.6665581089       -4.4492182458        0.5452708887
 H          4.2174046764       -4.8657924996        0.3445998264
 H          0.3959210385       -4.2909925972        0.0664491018
 H         -2.0416812131       -4.7367919895       -0.1385338233
 H         -2.5955445486       -3.7131704932       -2.4235426492
 H         -3.5346178894       -4.9335996731       -4.3224549921
 H         -5.9480125583       -5.4877993123       -4.3783609238
 H         -7.4057150563       -4.7468015489       -2.5063515085
 H         -8.1272984447       -2.6083078558        1.4501522489
 H         -7.3542612745       -1.3868852982        3.4726940106
 H         -4.9360669730       -0.9295011767        3.7554429188
 H         -3.3416717207       -1.6367996177        2.0465192143
 H         -2.7961152882       -0.5505527669       -0.1242118536
 H         -2.1036216963        1.2852090904        0.1231107890
 H         -1.5179533602        2.3843190172       -2.0502870252
 H         -2.9513875772        2.8773473765       -3.9655425323
 H         -4.4477017220        4.8512251682       -3.9293495500
 H         -4.4420714770        6.3391391386       -1.9379258892
 H         -2.9544604648        7.5676789417        2.1900705576
 H         -1.6040086535        7.2050429188        4.2450781793
 H         -0.1936001747        5.1767049271        4.4217268321
 H         -0.1014176305        3.5768504849        2.5750124690
 H          1.2510579618        3.8843531949        0.4071364171
 H          2.7667503936        1.9131816772        0.4422078626
 H          5.9777243404       -0.2241352656        0.6100483077
