  61
 
 C          1.5304855650        2.7661429250        0.5625360690
 C          0.4435101725        1.9315967663        0.5161614467
 C          0.5860860088        0.5227043141        0.3421487182
 C         -0.5393908937       -0.3423489505        0.3309395787
 C         -0.4245637945       -1.7746284868        0.3910881746
 N         -1.4437925639       -2.5722174972        0.4345748054
 C         -2.6933778454       -2.1392149699        0.3562482939
 C         -2.9394529143       -0.7497789473        0.1323231882
 N         -4.2509572890       -0.3175949161       -0.0292103756
 C         -4.8559884112        0.7186085632        0.6555868808
 C         -4.3375441707        1.5443054379        1.6431294045
 C         -5.1688218059        2.5158412805        2.1737346643
 C         -6.4847656620        2.6581009062        1.7410462399
 C         -7.0157768542        1.8180871452        0.7767379296
 C         -6.2024832929        0.8353722121        0.2326956294
 C         -6.4135491108       -0.1975284744       -0.7476041414
 C         -7.5025903797       -0.5794199658       -1.5164221476
 C         -7.3515201287       -1.6354164138       -2.3995254883
 C         -6.1328594240       -2.2965354354       -2.5298749320
 C         -5.0307637371       -1.9303211591       -1.7767142844
 C         -5.1838878082       -0.8877951208       -0.8734200619
 C         -1.8790310428        0.1176243819        0.1448480909
 C          1.9128476680        0.0459610376        0.1997140205
 C          2.9945532882        0.8979163335        0.2323508180
 N          4.2911564783        0.3801846903        0.0618676006
 C          4.8392769049       -0.6754688663        0.7557756402
 C          4.2975669172       -1.4293437721        1.7896589568
 C          5.0779564811       -2.4319734875        2.3346555404
 C          6.3697022220       -2.6783239070        1.8744766547
 C          6.9239832730       -1.9154240996        0.8614786492
 C          6.1599985701       -0.9045650422        0.2977937955
 C          6.4058485200        0.0694075301       -0.7328056853
 C          7.4865592447        0.3378357985       -1.5594342789
 C          7.3749041197        1.3610406981       -2.4847845298
 C          6.1993984200        2.0998059082       -2.6007422524
 C          5.1081601061        1.8496737505       -1.7897625314
 C          5.2229945548        0.8406139727       -0.8415013991
 C          2.8261317678        2.2776929941        0.4232704977
 H          1.3820630013        3.8258631377        0.7190342601
 H         -0.5403812341        2.3529399011        0.6504518155
 H          0.5422746389       -2.2554499244        0.3778513837
 H         -3.4913051808       -2.8391657328        0.5371491435
 H         -3.3250523152        1.4237359887        1.9970832960
 H         -4.7891285137        3.1731339372        2.9416672677
 H         -7.1022676734        3.4303669254        2.1750822901
 H         -8.0409309521        1.9217202982        0.4557334143
 H         -8.4452783685       -0.0612452029       -1.4292966327
 H         -8.1884857165       -1.9483414875       -3.0057690736
 H         -6.0427599408       -3.1080692662       -3.2363109014
 H         -4.0829260281       -2.4337779698       -1.8917241866
 H         -2.0606085061        1.1589946700       -0.0733203599
 H          2.0934752100       -0.9990374711        0.0018137896
 H          3.3030105561       -1.2324385382        2.1601280158
 H          4.6781766415       -3.0349159095        3.1366327651
 H          6.9476259373       -3.4725345968        2.3234063280
 H          7.9307907579       -2.0991790959        0.5179285370
 H          8.3930401271       -0.2435826013       -1.4838743116
 H          8.2063142562        1.5864732971       -3.1361265935
 H          6.1368002647        2.8813401920       -3.3435918137
 H          4.1929341422        2.4119674976       -1.8949809705
 H          3.6827892181        2.9287978814        0.4894649732
