  73
 
 O          4.9558347094        1.5605279802        1.8876074030
 C          5.3033094780        0.5701906630        1.2695950950
 C          6.6994040592        0.1134224284        1.1932324756
 C          7.7096844454        0.8176909412        1.8542365430
 C          9.0182307046        0.3984365942        1.7891588456
 C          9.3438200390       -0.7402322092        1.0571071058
 C          8.3661247111       -1.4514171293        0.3966395570
 C          7.0374151090       -1.0296289441        0.4602364291
 O          6.1244908230       -1.7732777364       -0.2110606616
 C          4.8223899136       -1.4064165778       -0.1738306964
 C          3.9149081658       -2.2029755316       -0.8745269324
 C          2.5763066505       -1.8879102094       -0.8712105617
 C          2.0959781435       -0.7695473374       -0.1777418809
 C          0.6617841632       -0.4452954295       -0.1828230164
 C         -0.2870630761       -1.4589184021       -0.1020104093
 C         -1.6442486820       -1.1560480747       -0.1064745968
 N         -2.5852082924       -2.1916302026       -0.0498245066
 C         -2.5909480747       -3.3122488746       -0.8581556904
 C         -1.7498991360       -3.6489860276       -1.9088316653
 C         -1.9947681100       -4.8326844369       -2.5782777224
 C         -3.0551754349       -5.6631826280       -2.2230045833
 C         -3.9118850189       -5.3201037589       -1.1963512175
 C         -3.6859725067       -4.1349572666       -0.5089351354
 C         -4.3677475503       -3.4721265291        0.5674212016
 C         -5.4842866956       -3.7893992853        1.3296331163
 C         -5.8712790716       -2.9205351745        2.3301479979
 C         -5.1500551580       -1.7567088666        2.5861791175
 C         -4.0356399482       -1.4215435061        1.8417664334
 C         -3.6574480067       -2.2758515302        0.8171058481
 C         -2.0628548392        0.1667037308       -0.1914731753
 C         -1.1173151892        1.1846368337       -0.2620692051
 N         -1.5306925835        2.5177177198       -0.3679983727
 C         -1.0942794969        3.4228936796       -1.3176196445
 C         -0.2073997250        3.2441616180       -2.3692764274
 C          0.0347345636        4.3220974791       -3.1993929200
 C         -0.5930740242        5.5494889776       -3.0007950957
 C         -1.4951669255        5.7261216366       -1.9709625094
 C         -1.7547383114        4.6573597126       -1.1233894956
 C         -2.6263700646        4.4824482127        0.0046558735
 C         -3.5022752687        5.3263455863        0.6745025904
 C         -4.1898069099        4.8353274043        1.7663498711
 C         -3.9984726882        3.5267343623        2.2032669578
 C         -3.1310780085        2.6701431510        1.5532986614
 C         -2.4593797813        3.1476643533        0.4381106128
 C          0.2390072722        0.8780772194       -0.2537837677
 C          3.0025504551        0.0185852070        0.5094960202
 C          4.3637984200       -0.2843653581        0.5246526157
 H          7.4217548324        1.6957934213        2.4123819152
 H          9.7920160256        0.9480034616        2.3025056099
 H         10.3700356695       -1.0712179759        1.0047669249
 H          8.6000795341       -2.3358232950       -0.1748589660
 H          4.2878557483       -3.0603646772       -1.4123725123
 H          1.8879383435       -2.5048093811       -1.4289815777
 H          0.0236538544       -2.4871596351        0.0012670441
 H         -0.9390840610       -3.0010165501       -2.2066425446
 H         -1.3522694392       -5.1182476213       -3.3982656067
 H         -3.2112665263       -6.5819211517       -2.7684363912
 H         -4.7445987856       -5.9543596204       -0.9324702654
 H         -6.0324115462       -4.7003994856        1.1424497195
 H         -6.7385258573       -3.1469292068        2.9322375700
 H         -5.4659521108       -1.1040049720        3.3864950173
 H         -3.4706215990       -0.5296166547        2.0633421642
 H         -3.1154557783        0.4005874355       -0.2353096816
 H          0.2720425711        2.2927828288       -2.5445110095
 H          0.7244068089        4.2086536271       -4.0228182054
 H         -0.3745633957        6.3684120772       -3.6698230420
 H         -1.9945141419        6.6721218109       -1.8257661914
 H         -3.6356376883        6.3463756786        0.3472298716
 H         -4.8781650830        5.4741412053        2.2992661178
 H         -4.5359138506        3.1749887135        3.0715135955
 H         -2.9712327559        1.6663106861        1.9150929714
 H          0.9630906455        1.6759023323       -0.3074782373
 H          2.6821003374        0.8810094837        1.0746032277
