88
 xtb: 6.7.1 (edcfbbe)
C          -10.23047812433520       -0.59007076994168       -0.83734070247168
C           -8.99493963338320       -1.18947442123556       -0.13881811238945
C           -9.35903308566538       -2.52889192157267        0.52980832689951
C           -8.52572677891140       -0.22301900877970        0.93365580308253
C           -9.38558959869095        0.12090633678141        1.96853050494847
C           -9.01039349339861        0.98613381299445        2.98051090499497
C           -7.73558304984600        1.52336767727828        2.97246168718664
C           -6.86040041815424        1.19878004659489        1.95652772573922
C           -7.24283471266110        0.33531853638639        0.92509854375239
N           -6.34094098520973        0.03035377328556       -0.08349357111168
C           -5.05076207098328        0.62715213804911       -0.06063433782234
C           -4.87052022162717        1.92414092423709       -0.53094489745428
C           -3.61493745076693        2.49601086750387       -0.51261325006477
C           -2.51474381144683        1.78408175451831       -0.03197509457099
C           -1.19480376822765        2.42519121785497       -0.04170156837229
C           -0.00050662835014        1.70531782435526       -0.02462702389517
C            1.19395026561285        2.42510683780062       -0.04153650235692
C            2.51364607626575        1.78401816752408       -0.02395562296557
C            3.61424425780445        2.51547755883691        0.42549915242042
C            4.87007968882760        1.94548272026926        0.46553939311582
C            5.05078015335536        0.63029382690841        0.04833220282040
N            6.34098993997585        0.03645081680209        0.09152297570009
C            6.65285581771048       -0.81915392386165        1.13704642363013
C            5.70724942847520       -1.06040248831196        2.13857929170220
C            5.98412912210735       -1.91212259886646        3.18760329712824
C            7.21717143515766       -2.53485930035207        3.26131948913071
C            8.16051082475996       -2.28307007685853        2.28183039956245
C            7.90886645903108       -1.43079605466900        1.21494695805148
C            8.99456014498727       -1.18370643384782        0.18380298417473
C           10.22094569667268       -0.58053795540374        0.89436351342818
C            9.36749034581715       -2.52597899901654       -0.47368630055918
C            8.53768033768521       -0.22318104961001       -0.89880279047742
C            9.40966397910928        0.11405683678407       -1.92536452190468
C            9.04592780037595        0.97115217703745       -2.94798887112103
C            7.76986641842305        1.50524158645516       -2.96045462421364
C            6.88287164910183        1.18704328469354       -1.95324956260506
C            7.25445073499320        0.33434649418659       -0.90913383007163
C            3.96218280077324       -0.10085461720363       -0.41540404224878
C            2.70495136822594        0.46989054074322       -0.45042969635317
N            1.17848496568953        3.76358904494604       -0.06236310509526
C           -0.00032418215941        4.34856931024706       -0.08648580365867
N           -1.17919843798931        3.76298987656888       -0.08887752777048
C           -2.70605221930069        0.48884088557677        0.44861219530825
C           -3.96304762469799       -0.08363401255344        0.43512550679833
C           -6.66400876364891       -0.83110482960017       -1.12068755269541
C           -5.72696568615673       -1.08233343371946       -2.12800481411772
C           -6.01547199522012       -1.93950926450498       -3.16974180101897
C           -7.25109103127205       -2.55865331989613       -3.22913692929851
C           -8.18464620122275       -2.29970870626231       -2.24174124001152
C           -7.92139497026002       -1.44179754780577       -1.18195623314405
H           -9.95798890094487        0.33968210615142       -1.34144266110818
H          -10.58677200831335       -1.28308129325272       -1.63019123453280
H          -11.03026345056722       -0.41743107407212       -0.16265960781630
H           -8.48997717730352       -2.93345040815639        1.04166900991874
H           -9.71484071552498       -3.24598914179857       -0.18920971510007
H          -10.14555932256356       -2.37153358212528        1.27723021476830
H          -10.40095677148449       -0.26737105160203        1.95624567985967
H           -9.74345599249702        1.28602356276303        3.71872434921526
H           -7.45461246750219        2.24476816568025        3.71874320956926
H           -5.88378164911380        1.64205440781849        1.94684132410077
H           -5.71819831409246        2.47874784827890       -0.89720887174794
H           -3.46018837535289        3.50467338440846       -0.85690937221388
H           -0.00098421442890        0.63041964261364        0.00638828823008
H            3.46170174355285        3.53060759398696        0.76428637169541
H            5.72038324820268        2.50766792743399        0.82835892757563
H            4.74939561155751       -0.57993299055101        2.08966040870519
H            5.24105887146437       -2.10286431467071        3.93564122541106
H            7.45140000628797       -3.22605476351705        4.05447335848683
H            9.12398813669401       -2.78121591292454        2.33549731318837
H            9.95763695511084        0.36100008354783        1.34301291562597
H           10.58574331407013       -1.25753042210591        1.65598857111978
H           11.03055067872357       -0.41362770467828        0.17628915276876
H            8.49088049365789       -2.94566230366728       -0.99395920601968
H            9.71479047510723       -3.24098860148782        0.24207338480633
H           10.14667526925359       -2.38733446305358       -1.23610291746876
H           10.40202764009623       -0.29401746138892       -1.94490481821400
H            9.74521198418416        1.23217090429385       -3.73121146555130
H            7.45538193278152        2.18870329626810       -3.74797500348256
H            5.88387743715709        1.61239742110579       -1.96866077062836
H            4.10923649523480       -1.11332065079285       -0.75441216015628
H            1.87670058544863       -0.10049756119944       -0.83585456957610
H            0.00028775902127        5.43394206471581       -0.07613164865970
H           -1.88054735152292       -0.07094808646972        0.86854397941947
H           -4.11254365326449       -1.08708599457202        0.81126337981945
H           -4.74703927626605       -0.61756212307447       -2.07164396091936
H           -5.24003891427648       -2.16498803770070       -3.89704314900349
H           -7.45269764544679       -3.28476229078096       -4.00284798896045
H           -9.12542035440145       -2.81446327796903       -2.29068048259972
