88

C    -10.285464   -0.682654   -0.845601
C     -9.027341   -1.232695   -0.124276
C     -9.372606   -2.567335    0.586079
C     -8.603592   -0.215557    0.944517
C     -9.507578    0.136457    1.978347
C     -9.171294    1.054729    2.969939
C     -7.920701    1.645467    2.953005
C     -7.015288    1.312546    1.944859
C     -7.330030    0.382027    0.925248
N     -6.374872    0.056689   -0.101069
C     -5.080305    0.672984   -0.081480
C     -4.859055    1.882006   -0.749685
C     -3.594633    2.479442   -0.724005
C     -2.514485    1.889595   -0.039240
C     -1.185349    2.537507   -0.031936
C     -0.000372    1.820199   -0.011702
C      1.184574    2.537797   -0.003741
C      2.513895    1.890306    0.013504
C      3.595195    2.493086    0.685107
C      4.859937    1.896714    0.719353
C      5.080352    0.675573    0.073303
N      6.375253    0.060321    0.101357
C      6.701119   -0.857647    1.160711
C      5.767645   -1.149764    2.184321
C      6.055597   -2.036645    3.222371
C      7.290100   -2.659060    3.265803
C      8.227588   -2.389322    2.271870
C      7.956382   -1.491143    1.209064
C      9.027314   -1.229498    0.140723
C     10.288673   -0.666250    0.846046
C      9.368765   -2.578314   -0.544217
C      8.600165   -0.233535   -0.946495
C      9.500541    0.097396   -1.990393
C      9.161155    0.996146   -2.998678
C      7.910991    1.587952   -2.988805
C      7.009054    1.275494   -1.971037
C      7.326946    0.364962   -0.934495
C      4.020846    0.064568   -0.607837
C      2.757496    0.666152   -0.637947
N      1.191674    3.887533   -0.002442
C     -0.000519    4.493350   -0.034166
N     -1.192658    3.887010   -0.055845
C     -2.758890    0.677739    0.634498
C     -4.021981    0.075233    0.613147
C     -6.697199   -0.882386   -1.142871
C     -5.760156   -1.195246   -2.157053
C     -6.044632   -2.102811   -3.178045
C     -7.279174   -2.725654   -3.213400
C     -8.220179   -2.435663   -2.228534
C     -7.952506   -1.516360   -1.183034
H    -10.063726    0.263128   -1.356026
H    -10.672201   -1.377265   -1.599221
H    -11.114277   -0.493981   -0.154613
H     -8.495384   -2.975249    1.104039
H     -9.724257   -3.333765   -0.113188
H    -10.166573   -2.450281    1.331709
H    -10.499346   -0.308638    2.021290
H     -9.885849    1.305176    3.749082
H     -7.641870    2.365134    3.717632
H     -6.045888    1.803816    1.972471
H     -5.673713    2.360169   -1.287755
H     -3.452598    3.422313   -1.250718
H     -0.000434    0.738527   -0.002640
H      3.453900    3.445574    1.194433
H      5.675495    2.385170    1.246707
H      4.785754   -0.683816    2.193028
H      5.313157   -2.234201    3.990447
H      7.527620   -3.351690    4.068465
H      9.188426   -2.895485    2.336683
H     10.069652    0.289694    1.338390
H     10.677854   -1.346032    1.611829
H     11.114932   -0.492079    0.148228
H      8.489184   -2.995775   -1.050438
H      9.722620   -3.330914    0.168830
H     10.159833   -2.476797   -1.295188
H     10.491875   -0.349132   -2.028189
H      9.872994    1.230713   -3.785217
H      7.629808    2.292650   -3.766406
H      6.039875    1.766815   -2.004746
H      4.185745   -0.879201   -1.122201
H      1.970390    0.168586   -1.199976
H     -0.000554    5.577737   -0.043197
H     -1.972598    0.191088    1.207136
H     -4.187579   -0.858852    1.144675
H     -4.778130   -0.729730   -2.171660
H     -5.299493   -2.315976   -3.939304
H     -7.514034   -3.434223   -4.002822
H     -9.181008   -2.942649   -2.286716
