92

C     -0.034372    2.343881    1.468435
C      0.009350    1.774075    0.026425
C      0.058483    2.938466   -0.997315
C      1.294613    0.946458   -0.121722
C      2.555265    1.566353    0.079602
C      3.755370    0.860737   -0.052441
N      5.004381    1.516060    0.163429
C      5.283736    2.392724    1.215161
C      4.515804    2.799158    2.327560
C      5.074968    3.693662    3.244841
C      6.371343    4.162122    3.081266
C      7.144993    3.729727    2.001723
C      6.603676    2.823666    1.062592
C      7.140078    2.185273   -0.093518
C      8.404009    2.235713   -0.722784
C      8.630707    1.509074   -1.893814
C      7.613693    0.746700   -2.451647
C      6.355250    0.678487   -1.846550
C      6.137316    1.382506   -0.642980
C      3.716478   -0.484128   -0.395102
C      2.482615   -1.108844   -0.591365
C      1.254279   -0.418408   -0.458026
N      0.000133   -1.094024   -0.658973
C     -0.004686   -2.496383   -0.976418
C      0.010206   -2.909642   -2.330353
C      0.006618   -4.262682   -2.661298
C     -0.011489   -5.161441   -1.610110
C     -0.026369   -4.799516   -0.249400
C     -0.023281   -3.448109    0.065920
C     -0.042725   -5.951425    0.655263
C     -0.058668   -5.966547    2.043231
C     -0.072122   -7.200266    2.711794
C     -0.069683   -8.414395    2.001844
C     -0.053624   -8.419183    0.609367
C     -0.040637   -7.187365   -0.018471
S     -0.018545   -6.916735   -1.756824
O      1.264372   -7.337993   -2.275577
O     -1.292934   -7.325256   -2.305890
C     -1.249398   -0.391538   -0.537216
C     -2.481896   -1.058356   -0.736204
C     -3.711615   -0.404637   -0.627714
C     -3.741991    0.948580   -0.318706
N     -4.986623    1.638196   -0.211426
C     -5.257669    2.900749   -0.745344
C     -4.484989    3.764773   -1.550807
C     -5.035630    4.984087   -1.956061
C     -6.328304    5.336149   -1.592923
C     -7.106913    4.464013   -0.828666
C     -6.574277    3.224492   -0.409341
C     -7.117530    2.131997    0.327668
C     -8.382066    1.898738    0.912972
C     -8.616746    0.718266    1.621534
C     -7.606997   -0.223143    1.765863
C     -6.348036   -0.016615    1.194136
C     -6.122158    1.158811    0.446385
C     -2.537506    1.629147   -0.114565
C     -1.280986    0.977506   -0.217249
H      0.840897    2.960287    1.700839
H     -0.070459    1.535220    2.209355
H     -0.907524    2.982569    1.639984
H      0.090882    2.556308   -2.025464
H     -0.812726    3.598277   -0.921958
H      0.935537    3.580043   -0.860077
H      2.595293    2.630940    0.302270
H      3.512724    2.420162    2.496889
H      4.489069    4.017718    4.102017
H      6.794197    4.855517    3.803756
H      8.166375    4.083541    1.892655
H      9.198757    2.846152   -0.303260
H      9.603603    1.554159   -2.376523
H      7.793245    0.202076   -3.375922
H      5.566977    0.102342   -2.321163
H      4.622578   -1.079999   -0.471777
H      2.505326   -2.165344   -0.847028
H      0.024540   -2.158486   -3.117875
H      0.017680   -4.595658   -3.693715
H     -0.034096   -3.106551    1.096898
H     -0.060403   -5.046289    2.620169
H     -0.084290   -7.219414    3.800312
H     -0.080086   -9.356029    2.547192
H     -0.051146   -9.344655    0.043404
H     -2.511101   -2.114029   -0.994637
H     -4.621133   -0.963273   -0.834370
H     -3.485036    3.496942   -1.877864
H     -4.446118    5.659341   -2.572168
H     -6.744555    6.286364   -1.917583
H     -8.125619    4.736718   -0.567608
H     -9.171170    2.639777    0.821020
H     -9.590253    0.544995    2.072984
H     -7.792947   -1.129445    2.337756
H     -5.565531   -0.752708    1.349810
H     -2.570756    2.678718    0.171471
