  112
 
 C          6.8359575974        2.2180074662       -2.3862538479
 C          5.8226505117        2.5576656339       -3.2669150822
 C          4.5625613205        2.0066942000       -3.1249294430
 C          4.2959487054        1.1010769711       -2.1012888701
 C          2.9594120449        0.5189948629       -1.9153329212
 C          1.8139494079        1.3075601665       -2.0796002518
 C          0.5518615813        0.8327782235       -1.7841098207
 C          0.4473830663       -0.4556415323       -1.2841607884
 C          1.5710320739       -1.3086693106       -1.2458068837
 C          2.8282197016       -0.8142051728       -1.5443637712
 C          1.0958985443       -2.5875307474       -0.7934169831
 C          1.7224946345       -3.8011304102       -0.5625405783
 C          0.9799135852       -4.8650332970       -0.0657376652
 C          1.6194571938       -6.1653824670        0.1870027250
 C          0.9812125316       -7.3516103586       -0.1674794946
 C          1.5844790268       -8.5732532408        0.0657618752
 C          2.8330225162       -8.6314195265        0.6619549284
 C          3.4754872602       -7.4587618056        1.0217232636
 C          2.8758075508       -6.2362207933        0.7843766898
 C         -0.3832409749       -4.6898069960        0.2029370243
 C         -1.0271207954       -3.4890031745       -0.0211911632
 C         -0.2847244177       -2.4387506409       -0.5377190677
 N         -0.6677997540       -1.1364917680       -0.8255579825
 C         -1.8704084008       -0.5586565444       -0.4072736057
 C         -3.0596611326       -1.1170036634       -0.8033673671
 C         -4.2902459923       -0.5719468471       -0.3923569203
 N         -5.4377054225       -1.1340129494       -0.7942149571
 C         -6.5675565702       -0.5800775992       -0.3941380180
 C         -7.8211681138       -1.1648701971       -0.8115696907
 C         -7.8602520797       -2.2997945875       -1.6283541974
 C         -9.0828742801       -2.8161494805       -1.9958374661
 C        -10.2342676033       -2.1773571900       -1.5323330823
 N        -10.2182959216       -1.1127258271       -0.7659653923
 C         -9.0445999625       -0.5995060885       -0.4003846777
 C         -9.0487067203        0.5807934777        0.4497467131
 N        -10.2259819556        1.0849258984        0.8164624816
 C        -10.2494152488        2.1490111935        1.5834016025
 C         -9.1025239233        2.7961852292        2.0464493507
 C         -7.8762955136        2.2894328863        1.6776014495
 C         -7.8292540418        1.1553455547        0.8600584923
 C         -6.5715825878        0.5802474794        0.4413840432
 N         -5.4455627180        1.1426124516        0.8406010576
 C         -4.2942768411        0.5886523093        0.4386395576
 C         -3.0671972107        1.1415230604        0.8500600419
 C         -1.8747152902        0.5891001633        0.4561299122
 N         -0.6747650272        1.1713177656        0.8767726285
 C          0.4389049289        0.4890785567        1.3348291903
 C          0.5355007608       -0.7952898816        1.8473337025
 C          1.7942310023       -1.2720023840        2.1496923248
 C          2.9434508285       -0.4872402237        1.9868676122
 C          4.2738245413       -1.0767625159        2.1911817233
 C          5.3015517853       -0.3643986965        2.8040943142
 C          6.5569502214       -0.9256804375        2.9483222172
 C          6.8087018304       -2.2039128974        2.4788019767
 C          5.7944851747       -2.9212901196        1.8661152247
 C          4.5382749531       -2.3631558017        1.7252213922
 C          2.8214244369        0.8398979016        1.5938045893
 C          1.5680081841        1.3332836958        1.2771791022
 C          1.1015270451        2.6056293619        0.7982295293
 C          1.7411058483        3.8011210362        0.5165120347
 C          1.0036057942        4.8587492743       -0.0014812041
 C          1.6581662497        6.1376057936       -0.3158513161
 C          2.6075466066        6.6786857937        0.5480916657
 C          3.2213478306        7.8822535289        0.2561719014
 C          2.9014335741        8.5638250087       -0.9060819229
 C          1.9625312607        8.0333755547       -1.7747345352
 C          1.3445560028        6.8320166515       -1.4819944357
 C         -0.3681048260        4.6970124668       -0.2331788382
 C         -1.0246927404        3.5136597010        0.0412507014
 C         -0.2844365115        2.4664815181        0.5664993747
 C          5.3243615416        0.7638734726       -1.2222403361
 C          6.5818459522        1.3195426829       -1.3632199340
 H          7.8189857432        2.6515909264       -2.4970010682
 H          6.0161687435        3.2548285902       -4.0694241611
 H          3.7820691031        2.2647763470       -3.8259228602
 H          1.9227211433        2.3305922726       -2.4070407021
 H         -0.3181519089        1.4592997784       -1.9130475853
 H          3.6951452768       -1.4543863276       -1.4860387993
 H          2.7708415371       -3.9236192859       -0.7903705522
 H          0.0142697719       -7.3119355446       -0.6480165909
 H          1.0797840581       -9.4846766716       -0.2206118442
 H          3.3028446293       -9.5863463118        0.8457054822
 H          4.4473678487       -7.4978226437        1.4923318499
 H          3.3764564249       -5.3273937383        1.0850384300
 H         -0.9422029266       -5.5151664505        0.6184694904
 H         -2.0748542671       -3.3766312143        0.2144695113
 H         -3.0715920179       -1.9686178027       -1.4656504494
 H         -6.9286176698       -2.7405539693       -1.9490946669
 H         -9.1554745551       -3.6900080346       -2.6246003400
 H        -11.2174074578       -2.5464092888       -1.7949314887
 H        -11.2351202786        2.5105122652        1.8469021410
 H         -9.1812176100        3.6690011238        2.6759207711
 H         -6.9478038479        2.7371055276        1.9978816507
 H         -3.0843566359        1.9937324046        1.5114807768
 H         -0.3387608294       -1.4134911437        1.9877909469
 H          1.8947670055       -2.2784335548        2.5278274419
 H          5.1091169844        0.6281328141        3.1848092267
 H          7.3437359478       -0.3634947097        3.4304478351
 H          7.7909196220       -2.6392005930        2.5892923138
 H          5.9873305320       -3.9173522820        1.4932989266
 H          3.7500051337       -2.9111105503        1.2300172856
 H          3.6932797853        1.4674320536        1.4898068000
 H          2.8059980628        3.8955919882        0.6656287849
 H          2.8485724967        6.1596347201        1.4645175884
 H          3.9508310490        8.2927066371        0.9394237352
 H          3.3816695332        9.5039596619       -1.1339998027
 H          1.7122871879        8.5580051339       -2.6856156985
 H          0.6253121492        6.4159723637       -2.1728041153
 H         -0.9324664697        5.5301918998       -0.6250454558
 H         -2.0804109600        3.4123696430       -0.1613605942
 H          5.1295571370        0.0764710173       -0.4113890894
 H          7.3657528981        1.0514651301       -0.6693740258
