  64
 
 C          2.1402177692       -3.9201162723        0.0169848758
 C          0.6462617813       -3.5830755869       -0.0246636368
 C         -0.0277335892       -4.2620663932        1.1770526796
 C          0.0654517771       -4.1451336928       -1.3309350053
 C          0.3784537553       -2.0857169214        0.0291432956
 C          1.3971804347       -1.1527875432        0.0649374199
 C          1.1239402959        0.2193642058        0.0432389826
 C         -0.2047111085        0.6858152707        0.0151586803
 C         -1.2348735697       -0.2827613404        0.0764652484
 C         -0.9411462240       -1.6357421500        0.0347239535
 N         -2.5445711117        0.1828067010        0.1136299962
 C         -3.7351565958       -0.4895023902        0.3689787490
 C         -3.9821108373       -1.7195882709        0.9636004720
 C         -5.2956258556       -2.1279818261        1.1186233214
 C         -6.3607299483       -1.3317802435        0.7123065094
 C         -6.1321064827       -0.0777714361        0.1793210182
 C         -4.8227372001        0.3512174795        0.0211263973
 C         -4.2585439020        1.6024957384       -0.4078471695
 C         -4.7878762855        2.8010242145       -0.8576122932
 C         -3.9089026230        3.8285946950       -1.1656649977
 C         -2.5389434246        3.6881697310       -0.9911975725
 C         -1.9577032074        2.5073952880       -0.5176440638
 C         -2.8608312191        1.4645656536       -0.2863440749
 B         -0.4839057337        2.1721538802       -0.1814330932
 C          0.7405753465        3.0905214273       -0.0300362904
 C          0.6767993404        4.4873510801        0.0650192009
 C          1.7989713288        5.2739779806        0.1892330389
 C          3.0513475149        4.6701872848        0.2219351862
 C          3.1613495520        3.3008953475        0.1593928488
 C          2.0192413504        2.4921159085        0.0510930477
 N          2.1711145072        1.1191701771        0.0254120646
 C          3.4989830905        0.5900881685        0.0075090961
 C          4.1371420585        0.2669426984        1.1991681514
 C          5.4180940291       -0.2561572198        1.1736279202
 C          6.0636592948       -0.4568737598       -0.0358985065
 C          5.4277429226       -0.1321629698       -1.2229734539
 C          4.1461142012        0.3909690781       -1.2050479369
 H          2.5982974110       -3.5589098265        0.9351863808
 H          2.6641559808       -3.4915157514       -0.8345216423
 H          2.2675634127       -5.0003218043       -0.0201775612
 H         -1.1076042210       -4.1481939858        1.1439610554
 H          0.3350779044       -3.8290305135        2.1073661729
 H          0.1983019121       -5.3264310188        1.1803899413
 H          0.2534874707       -5.2150477039       -1.3939726584
 H         -1.0077282644       -3.9844041916       -1.3907733310
 H          0.5300817274       -3.6614851402       -2.1880917611
 H          2.4225380137       -1.4755348677        0.0852360788
 H         -1.7424994183       -2.3483174550       -0.0401411527
 H         -3.1881077938       -2.3401255200        1.3451914800
 H         -5.4953794482       -3.0852421562        1.5783443077
 H         -7.3722911411       -1.6876362230        0.8423839328
 H         -6.9535292796        0.5667740684       -0.0966906278
 H         -5.8542865869        2.9302669422       -0.9716203108
 H         -4.3005286896        4.7657918691       -1.5364676694
 H         -1.9020072321        4.5222260970       -1.2450540500
 H         -0.2950942907        4.9559285512        0.0595631877
 H          1.7127702119        6.3486947608        0.2611848215
 H          3.9435771502        5.2740885515        0.3093490034
 H          4.1408914287        2.8492403635        0.2070459982
 H          3.6232832002        0.4269443260        2.1357890877
 H          5.9126085348       -0.5072710068        2.1002506274
 H          7.0626585745       -0.8662537274       -0.0529643456
 H          5.9292996103       -0.2872135406       -2.1666622419
 H          3.6400343902        0.6463749110       -2.1244907827
