  94
 
 C         -7.2320040820        1.4112578400        0.3568756257
 C         -5.8946829735        0.8027820747        0.0823637512
 C         -5.1546012651        1.1964542894       -1.0525532480
 C         -3.9242005477        0.6621545225       -1.3213686226
 C         -3.3695879921       -0.3254957448       -0.4764669037
 N         -2.1176639300       -0.8579180191       -0.7216693088
 C         -1.8808459229       -2.2072295722       -0.5268140905
 C         -0.5817943567       -2.6502857206       -0.2286190571
 C         -0.3311619782       -3.9792418561        0.0073733017
 C         -1.3584135144       -4.9288835541       -0.0464709050
 C         -1.0956450456       -6.3790866610        0.2069156447
 C         -2.6497087355       -4.4865159772       -0.3583651353
 C         -2.9174659903       -3.1609665643       -0.5944849022
 C         -1.1736680971       -0.0686565306       -1.4246409880
 C         -0.9300286898       -0.4832395121       -2.7538599229
 C         -0.3539820346        0.3548046069       -3.6691356285
 C          0.0175254092        1.6434343375       -3.2769491180
 C         -0.0868465523        1.9988260299       -1.9361496030
 C         -0.6311456712        1.1672533066       -0.9745771561
 C         -0.5826221882        1.6462933678        0.4772500629
 C          0.6927794567        2.4624386536        0.7057150362
 C          0.6229171639        3.8477824926        0.9061964743
 C          1.7060052733        4.6142449698        1.2831717843
 C          2.9418876945        4.0182028712        1.4874747988
 C          3.0673563567        2.6697205572        1.2097985558
 C          1.9853439353        1.9010342092        0.7902524966
 N          2.3059987108        0.5684828295        0.3788267126
 C          2.9747736424       -0.2429351672        1.2952684268
 C          3.9694101529       -1.1526373024        0.9134978776
 C          4.5811097138       -1.9610815663        1.8509362986
 C          4.2498261010       -1.8927755851        3.1979979881
 C          4.9001797476       -2.7797938569        4.2145168355
 C          3.2908417791       -0.9558709850        3.5829349541
 C          2.6698909584       -0.1459609071        2.6582090960
 C          2.4907538071        0.3748123807       -1.0000258576
 C          2.3576140818       -0.8995547080       -1.5604821719
 C          2.5781884995       -1.1015380929       -2.9096660842
 C          2.9378340973       -0.0544448921       -3.7448938294
 C          3.2042758469       -0.2701792724       -5.2029773554
 C          3.0604835174        1.2164992804       -3.1847941276
 C          2.8442863186        1.4303840913       -1.8377592661
 C         -1.8783859648        2.4645130009        0.7090358461
 C         -2.1120922582        2.9078456626        2.1528236835
 C         -2.0786511858        1.7095685642        3.0922083861
 C         -0.7456953755        0.9910534573        2.9261067209
 C         -0.6008211044        0.4880351044        1.4919852384
 C         -4.1152122516       -0.7272403397        0.6653819321
 C         -5.3373673010       -0.1626508692        0.9266021077
 H         -7.9217850845        1.2041059096       -0.4630638950
 H         -7.1491652080        2.4954368848        0.4465405012
 H         -7.6586584227        1.0176122693        1.2762517008
 H         -5.5754165248        1.9333275149       -1.7215121350
 H         -3.3689644713        0.9663463000       -2.1966145962
 H          0.2017978619       -1.9132268723       -0.1672201202
 H          0.6730526049       -4.2973708993        0.2495433100
 H         -0.0621981664       -6.5421370804        0.5020938482
 H         -1.2960032564       -6.9642486339       -0.6916744997
 H         -1.7489916329       -6.7547702709        0.9944892010
 H         -3.4501600605       -5.2098296914       -0.4264864293
 H         -3.9125314430       -2.8417701401       -0.8670425813
 H         -1.2809363725       -1.4634151219       -3.0471140179
 H         -0.2130976092        0.0326280810       -4.6899805582
 H          0.4163931212        2.3433520154       -3.9936313327
 H          0.2907311167        2.9644024712       -1.6309390903
 H         -0.3119906644        4.3592195299        0.7524999769
 H          1.5839809339        5.6781805972        1.4270784802
 H          3.7951565285        4.5944391610        1.8111319538
 H          4.0338955438        2.1897489594        1.2869484670
 H          4.2833952120       -1.2072214157       -0.1174507098
 H          5.3462972633       -2.6514760897        1.5237853950
 H          5.7039459524       -3.3599551333        3.7679356483
 H          5.3071529609       -2.1884530820        5.0339238721
 H          4.1684076148       -3.4696713850        4.6361919876
 H          3.0290500238       -0.8618229444        4.6272481855
 H          1.9446006499        0.5798414341        2.9875810307
 H          2.0905372431       -1.7354792704       -0.9342701869
 H          2.4656132266       -2.0971767105       -3.3152256071
 H          2.8754423902       -1.2579416970       -5.5164413207
 H          4.2718698238       -0.1811145190       -5.4085189363
 H          2.6890695210        0.4799717526       -5.8006861767
 H          3.3478321555        2.0482789248       -3.8120712144
 H          2.9673959840        2.4219400742       -1.4287405090
 H         -1.9072049247        3.3206619244        0.0320919495
 H         -2.7119974740        1.8214311474        0.4284064578
 H         -1.3524863068        3.6213078647        2.4746857275
 H         -3.0846566147        3.4037547887        2.2100402700
 H         -2.2064091393        2.0398416017        4.1256741252
 H         -2.8970391901        1.0271692103        2.8502333331
 H          0.0610552020        1.6868708254        3.1706669751
 H         -0.6842989791        0.1421049118        3.6116776940
 H          0.3017043627       -0.1116284702        1.3914674855
 H         -1.4526152442       -0.1566102367        1.2923594892
 H         -3.6889161057       -1.4545173598        1.3409526546
 H         -5.8813598681       -0.4667063547        1.8104307613
