  121
 
 C        -12.3887130400       -2.8158762968       -2.3230451823
 C        -10.9523527364       -3.2082471374       -2.6834638755
 C        -10.7430474231       -4.6744513411       -2.2754229822
 C        -10.7874112895       -3.0637330072       -4.2037166771
 C         -9.9151113499       -2.3440292280       -1.9790519895
 C         -8.5554972689       -2.5861410234       -2.2178675354
 C         -7.5458036882       -1.8675214035       -1.6096776197
 C         -7.9017150220       -0.8702780146       -0.7142618259
 C         -9.2631751689       -0.5811732270       -0.4852148403
 C        -10.2587299452       -1.3196084415       -1.1117335892
 C         -9.2964715800        0.5284482360        0.4285764311
 C        -10.3293667122        1.2407685963        1.0174376482
 C        -10.0483468497        2.2789330025        1.8963799374
 C        -11.2013543938        3.0602524010        2.5135504150
 C        -10.7312559005        4.1847670972        3.4414795120
 C        -12.0766125953        2.1003772509        3.3333152516
 C        -12.0360549789        3.6918709295        1.3889585219
 C         -8.7099621550        2.5585806616        2.1871908772
 C         -7.6594347043        1.8627478727        1.6158900547
 C         -7.9522739665        0.8569127328        0.7099806428
 N         -7.1139515387        0.0041760937        0.0131535994
 C         -5.7168405374        0.0219140206        0.0422166963
 C         -5.0223202721        1.2242336728       -0.0828304006
 C         -3.6442211128        1.2416621363       -0.0358941084
 C         -2.9185639605        0.0593227001        0.1058327444
 C         -1.4552876017        0.0715698360        0.1279427164
 C         -0.7001780500       -0.8947432181       -0.5016978817
 C          0.7003606399       -0.8896565123       -0.4932455579
 C          1.4499704578        0.0702605217        0.1573926448
 C          2.9135778606        0.0502689826        0.1503266592
 C          3.6529075969        1.2323016950        0.2199885473
 C          5.0316181960        1.2119201746        0.1982750929
 C          5.7185989130        0.0039868490        0.0916116320
 N          7.1158338901       -0.0174720526        0.0550945120
 C          7.9376006407       -0.8577065945        0.7856042622
 C          7.6274974041       -1.8094083008        1.7428533417
 C          8.6644869817       -2.5050759561        2.3384844418
 C         10.0068400883       -2.2773329793        2.0219734535
 C         11.1445073683       -3.0594700170        2.6659109704
 C         10.6540447951       -4.1206682311        3.6558122436
 C         12.0574367360       -2.0852143550        3.4253592996
 C         11.9465465198       -3.7721012677        1.5662183108
 C         10.3066839743       -1.2919827831        1.0900725201
 C          9.2874206311       -0.5814197119        0.4760087648
 C          9.2751462120        0.4818023094       -0.4917032779
 C         10.2843835326        1.1582299640       -1.1648000285
 C          9.9602408312        2.1471600058       -2.0793935645
 C         11.0130286396        2.9426040719       -2.8396225069
 C         10.8423286316        4.4354953094       -2.5200320088
 C         10.8328564425        2.7100956026       -4.3471729193
 C         12.4422028603        2.5381570316       -2.4642140748
 C          8.6053716526        2.4166988844       -2.3159515203
 C          7.5824879900        1.7598458660       -1.6619097139
 C          7.9199586907        0.7980732564       -0.7216230454
 C          4.9899143248       -1.1822324864        0.0239411812
 C          3.6116885599       -1.1565426559        0.0618974418
 C          0.7113515895        1.0806406064        0.8257702840
 N          1.1928080488        2.0949224275        1.5466503713
 S         -0.0330284095        2.9570446577        2.1294418034
 N         -1.2392186569        2.0978368802        1.5048281022
 C         -0.7312767064        1.0833313755        0.8034072392
 C         -3.6194857866       -1.1418764436        0.2190994307
 C         -4.9984319420       -1.1620234845        0.2022468309
 H        -12.6002727859       -1.7908077216       -2.6192559394
 H        -13.0847081079       -3.4672899321       -2.8482949909
 H        -12.5682133428       -2.9241146096       -1.2556200003
 H        -10.8370323067       -4.7816925513       -1.1963075280
 H         -9.7592767394       -5.0310615042       -2.5681943607
 H        -11.4900729794       -5.3064762512       -2.7516300054
 H        -11.5394801605       -3.6572319634       -4.7198058014
 H         -9.8072409528       -3.3994091341       -4.5310611928
 H        -10.9068524547       -2.0225961594       -4.4977209809
 H         -8.2701889049       -3.3652476606       -2.9086060948
 H         -6.5116190988       -2.0757476351       -1.8397682778
 H        -11.2877019873       -1.0736999474       -0.9085516665
 H        -11.3478486943        0.9720708804        0.7826170059
 H        -11.5971853079        4.7120130796        3.8377154200
 H        -10.1664809178        3.7894857557        4.2828638872
 H        -10.1170336131        4.9044050392        2.9046503633
 H        -12.8990631645        2.6433545178        3.7947974501
 H        -11.4867124656        1.6329132501        4.1196185611
 H        -12.4946329309        1.3149581229        2.7095733775
 H        -12.8556292959        4.2712129897        1.8095402316
 H        -11.4165518224        4.3555704482        0.7885609224
 H        -12.4566801242        2.9343758757        0.7334092709
 H         -8.4635264623        3.3420940971        2.8846426454
 H         -6.6409004499        2.0995495551        1.8850321685
 H         -5.5701754885        2.1420631586       -0.2336011026
 H         -3.1167970308        2.1779229894       -0.1306675116
 H         -1.2049372449       -1.6760876890       -1.0504312557
 H          1.2088140388       -1.6647571596       -1.0463784655
 H          3.1362723338        2.1752878996        0.2989770769
 H          5.5861169649        2.1346529072        0.2790865071
 H          6.6059626687       -2.0044889288        2.0332170464
 H          8.4042627878       -3.2462483145        3.0761439990
 H         10.0128928448       -4.8487512836        3.1637118587
 H         11.5094409871       -4.6518054154        4.0692435225
 H         10.1113504638       -3.6664049682        4.4818138690
 H         12.4922020245       -1.3470592118        2.7569546849
 H         11.4908740014       -1.5589592942        4.1914188608
 H         12.8681523942       -2.6284617250        3.9069246081
 H         11.3020114519       -4.4508201977        1.0105683315
 H         12.7573183728       -4.3490041034        2.0067688078
 H         12.3765171065       -3.0620723052        0.8651885199
 H         11.3295121373       -1.0632012166        0.8329584159
 H         11.3081311177        0.8927609193       -0.9596735395
 H         11.6010322253        5.0190633489       -3.0377511953
 H         10.9467090266        4.6051662672       -1.4499230208
 H          9.8657486957        4.7986075764       -2.8282637810
 H          9.8565001893        3.0448534225       -4.6866343200
 H         11.5920267108        3.2559033093       -4.9039364496
 H         10.9291531588        1.6508544162       -4.5784303383
 H         13.1496932127        3.1432298136       -3.0281736456
 H         12.6298694852        2.7017076203       -1.4052638598
 H         12.6292557746        1.4936211705       -2.7033878293
 H          8.3341529209        3.1680560088       -3.0421943088
 H          6.5523494778        1.9885096826       -1.8907909414
 H          5.5107751957       -2.1231486025       -0.0711438423
 H          3.0709252521       -2.0905811576        0.0354345313
 H         -3.0765997778       -2.0650168742        0.3598390957
 H         -5.5288157663       -2.0932391453        0.3335635029
