  52
 
 N         -5.9375038189       -1.8719795328       -0.7696921533
 C         -4.9480945977       -1.3140226795       -0.5442023493
 C         -3.7518984657       -0.6711151029       -0.2622513939
 C         -2.5329445294       -1.3057342318       -0.4984442475
 C         -1.3306027976       -0.6690257529       -0.2734973418
 N         -0.1220643812       -1.2800052323       -0.6135789150
 C          0.3049853067       -2.5251712623       -0.1857356438
 C         -0.3636242081       -3.4719085708        0.5819102358
 C          0.3150489958       -4.6308620315        0.9126897668
 C          1.6274580140       -4.8505560134        0.4961045608
 C          2.3090228645       -3.9045071650       -0.2502796376
 C          1.6488530641       -2.7313155303       -0.5869298054
 C          2.0381183379       -1.5551130452       -1.3105474907
 N          3.1771240917       -1.2452006911       -1.9025095606
 C          3.2421047531       -0.0968142145       -2.5463041224
 C          2.1698731538        0.7899636413       -2.6533188160
 C          0.9607264416        0.4866793658       -2.0482247929
 C          0.9037824346       -0.6923632837       -1.3214738411
 C         -1.3265030269        0.6786320721        0.2696759764
 N         -0.1144165544        1.2812171670        0.6121100716
 C          0.3220826700        2.5235408091        0.1855460910
 C         -0.3384337535        3.4751650519       -0.5830676107
 C          0.3488149917        4.6296322669       -0.9118349611
 C          1.6618143988        4.8401749449       -0.4923983518
 C          2.3353681800        3.8891153356        0.2548842197
 C          1.6665200448        2.7202881048        0.5895936945
 C          2.0462120976        1.5411813463        1.3135828609
 N          3.1817762743        1.2232430399        1.9079187860
 C          3.2373489732        0.0743584907        2.5517076141
 C          2.1587195595       -0.8049067356        2.6563963695
 C          0.9530320173       -0.4931255702        2.0487346125
 C          0.9059005235        0.6863220187        1.3219478688
 C         -2.5248890746        1.3234839321        0.4925321187
 C         -3.7477047178        0.6971630459        0.2541779244
 C         -4.9400324024        1.3480658043        0.5341649421
 N         -5.9261408254        1.9124884876        0.7580297497
 H         -2.5412410001       -2.2991556645       -0.9233993440
 H         -1.3778494728       -3.3121415099        0.9142600653
 H         -0.1853486303       -5.3804433176        1.5062531702
 H          2.1202394056       -5.7702151391        0.7712635714
 H          3.3304868152       -4.0567111513       -0.5599965573
 H          4.1885172222        0.1193330580       -3.0211789416
 H          2.2793583782        1.6961810417       -3.2258719997
 H          0.0998612683        1.1285371262       -2.1650323907
 H         -1.3530093097        3.3224805105       -0.9176822436
 H         -0.1452374385        5.3829321412       -1.5060134174
 H          2.1614285566        5.7565991332       -0.7660290116
 H          3.3572137703        4.0342315722        0.5667321509
 H          4.1811650589       -0.1484941718        3.0286315395
 H          2.2606142828       -1.7118559477        3.2291916589
 H          0.0874311058       -1.1289149015        2.1636510025
 H         -2.5271780321        2.3169061633        0.9175479160
