79
 xtb: 6.7.1 (edcfbbe)
C           -1.79974899321897        0.62445379234402        5.00745732163151
C           -2.26415843457514        0.21300412362543        3.64357116186975
C           -1.85960725693951       -1.01934812048863        3.11677667812256
C           -2.23198974497909       -1.43853997481959        1.85567235242247
C           -3.02675039401240       -0.58769623448751        1.09779427618489
C           -3.47176387975767        0.64895118249641        1.62190967355900
C           -3.08395239505482        1.04467195914175        2.89192810328495
C           -4.30280364042751        1.24216905404822        0.60595092984788
C           -4.99688417044624        2.43835326213696        0.51672021239465
C           -5.70374137932194        2.73074239499010       -0.64254128550021
C           -6.46714996996087        4.01327779670403       -0.77523225730643
C           -5.69467970061860        1.82119611368243       -1.70675613675390
C           -5.00996904079776        0.62373077733557       -1.64531834709408
C           -4.32050333334753        0.33008969939295       -0.47589814177973
N           -3.54238044435885       -0.76375984003321       -0.16699768567282
C           -3.30095561267665       -1.86245304353517       -1.00083738149405
C           -4.37467318268173       -2.60120686405598       -1.47278948673870
C           -4.17742445471719       -3.73427587572421       -2.24207492020327
C           -2.87293737317001       -4.14848241414109       -2.53873312170672
C           -1.79705502161960       -3.42314669787017       -2.10466762425245
C           -1.96834968927570       -2.23436230133959       -1.35359420899270
C           -0.83921646087510       -1.44276741136955       -1.06925412645148
N            0.42826226143002       -1.78596372431615       -1.30678321230788
N            1.20098575507730       -0.81084347497181       -0.90516963820874
C            0.43395208414974        0.15992467412996       -0.41387238047125
C            0.81090175103255        1.40240667898523        0.12598061178545
C           -0.18632625501114        2.35190356222615        0.46118863242449
C            0.14367738598691        3.62906370201225        0.82650627732499
C            1.48340518848715        4.02926645542588        0.88075531739500
C            2.48176002470271        3.10952511890720        0.60317618162057
C            2.17535453592513        1.80273212446851        0.26044134206333
N            3.21233412107864        0.88388936192881        0.07341359684609
C            4.25383057417736        1.01595351252415       -0.81359665508488
C            4.49543928005452        2.01207067174516       -1.75271835548794
C            5.62301751913199        1.89572242775284       -2.54014425067770
C            6.50689443622741        0.81615636944894       -2.42087655709113
C            7.69819194144131        0.74033607214440       -3.32539137452196
C            6.24654380809097       -0.18767129558044       -1.49433945014363
C            5.12348494697674       -0.09426834143136       -0.69041815308707
C            4.56526138577493       -0.92985481018003        0.34345646327599
C            4.96729428271104       -2.11588750131767        0.93314330376317
C            4.20426287764319       -2.65814064465162        1.96134616870322
C            4.59541317444619       -3.95548384330369        2.59987917540973
C            3.05522343281945       -1.98905234182126        2.39663114969694
C            2.63512398265486       -0.80421002406083        1.82644186568010
C            3.38491741921828       -0.28557894315319        0.77953342914101
O           -0.90182544780769       -0.18786310342469       -0.50594489130914
H           -0.75738321586692        0.94426170536185        4.96530853490869
H           -1.86488321246743       -0.20782394826228        5.70469206975298
H           -2.39406346792297        1.45235804254557        5.38773693359273
H           -1.23392633017636       -1.66134450267789        3.72003305718817
H           -1.90842778028338       -2.39322785192932        1.46711676858282
H           -3.41445351110543        1.99242608957297        3.29161336379033
H           -4.98279081571870        3.13769287817541        1.33897801829158
H           -7.51567603579771        3.80985320647442       -0.99347959571664
H           -6.40790270921180        4.59901971990914        0.13715270104496
H           -6.06883639939655        4.60651474131443       -1.59814088691136
H           -6.23912891926624        2.06903422697037       -2.60671921224982
H           -5.00311262095788       -0.05998944642702       -2.48153438759432
H           -5.37426635902607       -2.29786805279389       -1.19699895796171
H           -5.02180697926805       -4.31039306084878       -2.58498853887581
H           -2.71745579190482       -5.04752649541346       -3.11713274780870
H           -0.78443215400242       -3.71816984031894       -2.33567460772497
H           -1.21926020861263        2.04223935796856        0.40413443333417
H           -0.63658630031167        4.33585994722858        1.06933431791213
H            1.73934258781013        5.03770011000667        1.16613525896942
H            3.52077354304441        3.39390120798457        0.69086027961109
H            3.81831945930216        2.84590942019747       -1.86501735826657
H            5.82910357300752        2.65575058817904       -3.28032492013918
H            7.38561839429454        0.61081331179215       -4.36597895174876
H            8.34964326145365       -0.09615350148070       -3.03843917661989
H            8.27747032219359        1.67864673934990       -3.25858925377009
H            6.90739279586755       -1.03668685970148       -1.41034720237424
H            5.86537653959314       -2.61406298042149        0.60020156713299
H            5.63657015278355       -4.19213737436049        2.39578661901571
H            3.97780277186486       -4.76240185392009        2.20526226041855
H            4.44418152588071       -3.91711185935409        3.67706010342897
H            2.48275750279646       -2.41480411716738        3.20809769068474
H            1.75019411322502       -0.29579321645002        2.17974554280082
