  60
 
 C          1.3247014289        1.7665905035       -1.9368430052
 C          0.2778417838        1.0818626727       -1.3690040084
 C          0.5067569392        0.0456304602       -0.4326502394
 C         -0.6089097588       -0.6187331733        0.1589407613
 C         -0.5119761843       -1.7960212035        0.9284206688
 N         -1.5502477944       -2.3792266480        1.4478167224
 C         -2.7808836568       -1.8611551526        1.2522472831
 C         -2.9251300869       -0.7562740363        0.4105201875
 N         -4.1782250874       -0.2145728995        0.1854062016
 C         -5.3697906214       -0.9071333215        0.0376560900
 C         -5.5930591902       -2.2693743820       -0.1018208952
 C         -6.8991653747       -2.6970681716       -0.2670500471
 C         -7.9588184727       -1.7958017112       -0.3064140085
 C         -7.7385191372       -0.4338314269       -0.2024976818
 C         -6.4377347318        0.0170423965       -0.0348789574
 C         -5.8548940472        1.3304933222        0.0709097448
 C         -6.3822727205        2.6133828548        0.0615836194
 C         -5.5154070393        3.6855320843        0.1807099099
 C         -4.1429190640        3.4896367324        0.3080648551
 C         -3.5956300532        2.2187280775        0.3250422740
 C         -4.4605959838        1.1437134255        0.1965711247
 N         -1.8748745233       -0.1592204719       -0.1146910502
 C          1.8409729989       -0.2438129301       -0.0931691752
 C          2.8847468505        0.4528097108       -0.6721514550
 N          4.2094616639        0.1461986111       -0.3148390688
 C          4.7808423790       -1.1076080051       -0.3313381229
 C          4.2382260179       -2.3200400278       -0.7372735654
 C          5.0440005281       -3.4413800522       -0.6725935891
 C          6.3608415726       -3.3649246060       -0.2236988375
 C          6.9139047594       -2.1568386251        0.1603027766
 C          6.1246835550       -1.0170745643        0.1045035179
 C          6.3623633425        0.3701799896        0.4011013550
 C          7.4609610364        1.0735106186        0.8741737172
 C          7.3388562471        2.4367134988        1.0730087682
 C          6.1374367059        3.0947631180        0.8183717099
 C          5.0290107636        2.4158058817        0.3480587578
 C          5.1520913516        1.0504073474        0.1255566488
 C          2.6396629760        1.4624446001       -1.6078339917
 H          1.1255459239        2.5473255167       -2.6568428673
 H         -0.7431904452        1.3188921293       -1.6244405414
 H          0.4405091741       -2.2871827484        1.0608182161
 H         -3.6002214344       -2.2692405681        1.8172567017
 H         -4.7772276754       -2.9758315908       -0.0973927973
 H         -7.0967283763       -3.7532243134       -0.3733227043
 H         -8.9642519461       -2.1674915335       -0.4344790552
 H         -8.5578178782        0.2663199921       -0.2565711542
 H         -7.4456015836        2.7687339954       -0.0374359574
 H         -5.9068540631        4.6918486479        0.1772238627
 H         -3.4910962859        4.3453681106        0.4012302638
 H         -2.5331741484        2.0629638739        0.4291352708
 H          2.0674750110       -0.9922809248        0.6507872749
 H          3.2240168221       -2.3824333462       -1.1021546956
 H          4.6448051518       -4.3968024819       -0.9800499858
 H          6.9582200458       -4.2638530707       -0.1851551160
 H          7.9393441219       -2.0979227669        0.4927767134
 H          8.3889191357        0.5638439301        1.0855867568
 H          8.1829025614        3.0023197918        1.4391178025
 H          6.0691822890        4.1579237613        0.9963661029
 H          4.0961695360        2.9279557893        0.1679112594
 H          3.4649550783        1.9761578856       -2.0751299390
