  86
 
 C        -12.1109642413       -0.0247693720        0.0060468468
 C        -11.4153788652        0.3381325175        1.1473126082
 C        -10.0332484422        0.3438625793        1.1472317388
 C         -9.3216910260       -0.0194699766        0.0054441661
 C         -7.8531296746       -0.0165985913        0.0050961487
 C         -7.1361901607       -1.0357284936       -0.6208960520
 C         -5.7572362107       -1.0390785801       -0.6133407111
 C         -5.0421750379       -0.0109652875        0.0043000872
 C         -3.5775810950       -0.0079130202        0.0038699014
 C         -2.8662722584       -1.0868572249        0.5986189201
 C         -3.5383158641       -2.1177670455        1.2772522948
 C         -2.8507418701       -3.1311982395        1.9148672347
 C         -1.4638813461       -3.1198274532        1.9319763138
 C         -0.7755328489       -2.1011842240        1.3009524340
 C         -1.4417639084       -1.0900891532        0.5951599146
 C         -0.7218757966       -0.0015548209        0.0035086027
 C          0.7226106663        0.0018458669        0.0036219439
 C          1.4404670616        1.0455251322        0.6561194608
 C          0.7783766251        2.0247633987        1.4216289011
 C          1.4671343078        3.0354763700        2.0439258904
 C          2.8577592182        3.1081813070        1.9310082391
 C          3.5408807165        2.1360799294        1.2475866437
 C          2.8659029652        1.0584967422        0.6318119155
 C          3.5715764594        0.0081783472        0.0043800476
 C          5.0432777111        0.0112699970        0.0050799639
 C          5.7561473710        0.1193803025       -1.1875639667
 C          7.1362211529        0.1301277047       -1.1853604043
 C          7.8493595793        0.0167443997        0.0065214484
 C          9.3189099277        0.0194525384        0.0072594152
 C         10.0305561384       -0.8562492475        0.8243473746
 C         11.4128006344       -0.8550586123        0.8220956940
 C         12.1075153967        0.0243382769        0.0085453655
 C         11.4104330003        0.9013227925       -0.8056255634
 C         10.0282032154        0.8976579113       -0.8091473669
 C          7.1354452145       -0.0993394662        1.1976802450
 C          5.7553435500       -0.0939664693        1.1984633436
 C          2.8709289755       -1.0451702802       -0.6236044733
 C          3.5509749356       -2.1197034692       -1.2391331162
 C          2.8725083356       -3.0946940188       -1.9230776702
 C          1.4816393383       -3.0280975884       -2.0367616633
 C          0.7880983260       -2.0205277885       -1.4146801231
 C          1.4454658744       -1.0384943427       -0.6486821176
 C         -1.4467634930        1.0836325832       -0.5881719171
 C         -0.7851878103        2.0975517451       -1.2942920358
 C         -1.4782109227        3.1130219728       -1.9253134642
 C         -2.8651056641        3.1182524983       -1.9078303868
 C         -3.5480222542        2.1019022713       -1.2698552993
 C         -2.8712335883        1.0740799974       -0.5912554894
 C         -5.7610103081        1.0142611198        0.6223676765
 C         -7.1399295355        1.0053844050        0.6307091323
 C        -10.0323554826       -0.3855218030       -1.1360293849
 C        -11.4144977654       -0.3850421682       -1.1355154439
 H        -13.1909904900       -0.0268092576        0.0062754844
 H        -11.9533041702        0.6160213725        2.0422382939
 H         -9.4968159145        0.6109273621        2.0463240016
 H         -7.6691427881       -1.8440389897       -1.1005613108
 H         -5.2165798916       -1.8326251362       -1.1095270318
 H         -4.6168496305       -2.1047204145        1.3156689910
 H         -3.3954327775       -3.9169877668        2.4170887930
 H         -0.9186661774       -3.8939044176        2.4511162858
 H          0.3022959456       -2.0825823488        1.3544090193
 H         -0.2961841251        1.9769234540        1.5129271495
 H          0.9340079172        3.7790789274        2.6175307336
 H          3.3936298938        3.9234107766        2.3944670851
 H          4.6168565464        2.1855410232        1.1744921742
 H          5.2156839765        0.2085770217       -2.1193592509
 H          7.6713698871        0.2064081989       -2.1209095875
 H          9.4941659605       -1.5561948404        1.4487677249
 H         11.9513673029       -1.5443210493        1.4563639546
 H         13.1875348176        0.0263346890        0.0091215212
 H         11.9471894336        1.5926290195       -1.4392546157
 H          9.4899470809        1.5956708449       -1.4341078451
 H          7.6699308016       -0.1735104096        2.1337752109
 H          5.2142767007       -0.1852464264        2.1297048436
 H          4.6271157632       -2.1644580662       -1.1654521590
 H          3.4122201446       -3.9074860712       -2.3863615706
 H          0.9521136617       -3.7739511326       -2.6107784846
 H         -0.2866171294       -1.9773946888       -1.5065289368
 H          0.2927024900        2.0837039982       -1.3479977054
 H         -0.9365750849        3.8894183150       -2.4447360882
 H         -3.4134047139        3.9015374300       -2.4100383297
 H         -4.6264998221        2.0840838090       -1.3079636645
 H         -5.2232515590        1.8099842696        1.1182167455
 H         -7.6758457719        1.8115574639        1.1106689808
 H         -9.4952998052       -0.6505444833       -2.0353540745
 H        -11.9517498234       -0.6649704602       -2.0302096063
