  58
 
 C         -0.5482383754        3.1667493451        0.7721015972
 C         -1.3107381337        1.8443813954        0.7195018013
 C         -1.7388199854        1.5511381635        2.1811734970
 C         -2.5716593529        1.9608640273       -0.1143146164
 C         -3.0847584560        3.1560374089       -0.5921876942
 C         -4.3051159897        3.2035505770       -1.2465472464
 C         -5.0333489697        2.0421123531       -1.4309925012
 C         -4.5271292472        0.8341232911       -0.9933853488
 C         -3.2939784566        0.7840529536       -0.3458235376
 N         -2.7407250069       -0.4281204869        0.0503684604
 C         -3.5675661461       -1.5858563115       -0.0035161968
 C         -3.5545234725       -2.4303062549       -1.1090890840
 C         -4.3815191980       -3.5388754757       -1.1395006292
 C         -5.2282097792       -3.8058149165       -0.0753501239
 C         -5.2489009170       -2.9601376540        1.0210885787
 C         -4.4211906657       -1.8510494431        1.0594324469
 C         -1.3616557893       -0.5446516350        0.1519818854
 C         -0.7912537703       -1.8347542806        0.1886492280
 C          0.5580524812       -1.9912792437        0.2323879898
 C          1.4066777761       -0.8721762308        0.1211733312
 C          2.7970808573       -1.0599237059        0.0447348078
 C          3.6655057907       -0.0093390873       -0.1376958518
 C          5.1143022601       -0.2181845954       -0.2138230890
 C          5.8992528942        0.5019013574       -1.1176614575
 C          7.2617494950        0.3049776277       -1.1879866828
 C          7.8746393763       -0.6235616546       -0.3425839248
 C          9.2679790590       -0.8275915338       -0.4065112611
 N         10.4034499868       -0.9945992196       -0.4590389621
 C          7.1007117057       -1.3506937157        0.5659447804
 C          5.7392108741       -1.1461639848        0.6233802230
 C          3.1061310544        1.2759628910       -0.2836821081
 C          1.7616655722        1.4882806794       -0.1732620593
 C          0.8432398960        0.4408170142        0.0852765614
 C         -0.5607614487        0.5964864045        0.2512818276
 H         -0.2984606157        3.5336500417       -0.2202384945
 H          0.3519014676        3.0609192463        1.3708898460
 H         -1.1749193880        3.9115418383        1.2601344404
 H         -2.3072101903        0.6288322935        2.2561745857
 H         -0.8560136999        1.4601664035        2.8112347678
 H         -2.3564104035        2.3649984304        2.5563885650
 H         -2.5465945226        4.0782567009       -0.4462982713
 H         -4.6898492575        4.1496633118       -1.5974868370
 H         -5.9927459193        2.0711320104       -1.9266538425
 H         -5.0861242107       -0.0744789601       -1.1585288081
 H         -2.8972286672       -2.2103236663       -1.9381234719
 H         -4.3682893993       -4.1926616772       -1.9991574781
 H         -5.8735160196       -4.6711235010       -0.1030509498
 H         -5.9107943387       -3.1632376320        1.8498268135
 H         -4.4359149246       -1.1839310118        1.9088620123
 H         -1.4375482786       -2.6977174078        0.2240627848
 H          0.9932090805       -2.9762146093        0.3187643789
 H          3.1718307933       -2.0733675820        0.0833728691
 H          5.4313465235        1.2082613116       -1.7868455301
 H          7.8626872084        0.8603444018       -1.8937044525
 H          7.5784237748       -2.0657809474        1.2201900866
 H          5.1481317974       -1.6975242561        1.3392114790
 H          3.7583386767        2.1157977104       -0.4747240621
 H          1.4061955942        2.4844404908       -0.3498260724
