94
 xtb: 6.7.1 (edcfbbe)
C            5.55928139331539        1.98233195041772       -2.32485294136397
C            4.88066690254793        2.67048543783075       -1.12249760953068
C            5.26645570390272        4.16297022340143       -1.07963023154880
C            3.38232616922399        2.55421743702030       -1.29043071591588
C            2.76714122933493        3.12108027554410       -2.39884550736227
C            1.40440985050215        3.01816390778948       -2.61246178637691
C            0.62182996374478        2.30511821813478       -1.71421618951374
C            1.20279593779907        1.72720138295842       -0.60967178732473
C            2.58015682942921        1.86335589276256       -0.36422075942433
N            3.12578746575950        1.30848430580148        0.77332034065984
C            2.26432396578044        0.64305266636724        1.68479322400583
C            2.25965253658221       -0.76018794481408        1.75571064677477
C            1.35142840602232       -1.40080908013002        2.55587179823100
C            0.42366803829402       -0.65854400523151        3.31136357551536
S           -1.09607769004289       -1.44246262237683        3.75917034262998
O           -1.84230451057361       -0.60059702355847        4.67654384360062
O           -0.86046197645571       -2.81618990837511        4.16578027083823
C           -1.83553736941168       -1.41202799116268        2.15324654184192
C           -1.40272520323737       -2.37591124312976        1.22991650918230
C           -1.55499218589325       -2.14949035011095       -0.12297659741740
N           -1.08860743367074       -3.09771030822817       -1.04768507562019
C           -1.40049949046400       -4.44026148312174       -1.05215135350898
C           -2.27356556392078       -5.14487831337803       -0.23336757835380
C           -2.42516255899452       -6.49884528813422       -0.46895622640178
C           -1.73625659689427       -7.13860783706953       -1.49773413247599
C           -0.87907595204375       -6.43787970909584       -2.32787347860353
C           -0.70793812718714       -5.07862122622757       -2.10993775216231
C            0.07306653627712       -4.05835768205262       -2.75743334122293
C            0.96361578102586       -4.06417113279594       -3.82116907003984
C            1.58342825293744       -2.87770367390259       -4.17255372644228
C            1.33153877756090       -1.69982767036709       -3.47228159347830
C            0.44546388160193       -1.66774302566079       -2.41112647482253
C           -0.19333707964662       -2.85166424382353       -2.06560921339025
C           -2.13904581474988       -0.96259517682756       -0.58675925259038
C           -2.58434351781893       -0.00928709860498        0.34459893350447
N           -3.18808946701071        1.16865280304548       -0.12352909512155
C           -4.22635596516821        1.23483629638476       -1.03131245855306
C           -4.93821832486460        0.20773950608541       -1.63799485235625
C           -5.95781880430040        0.55397520631645       -2.50541827043300
C           -6.27218794330021        1.88670771660536       -2.76231778140196
C           -5.58136436648922        2.91406807957828       -2.14438763544068
C           -4.55460675736934        2.59141832135437       -1.26908561568643
C           -3.66402013437405        3.37377056969238       -0.45365793057917
C           -3.48829333963569        4.73687727182777       -0.26504594424316
C           -2.50003619390006        5.16288795421968        0.60463667384666
C           -1.68654716868863        4.24871732165292        1.27057549261735
C           -1.84180158395520        2.88584169732137        1.09853817601061
C           -2.84524137855407        2.45189003946542        0.24229608965806
C           -2.42566276074387       -0.22329020158046        1.69971166678835
C            0.46410318120509        0.74621717150277        3.27427497208776
C            1.37752804446870        1.38929834381392        2.48118810353128
C            4.47524072905052        1.38274347436826        1.04414802667083
C            4.96831902032805        0.83536847865640        2.24062485781312
C            6.31200005563293        0.87410248106004        2.53139360121045
C            7.19505242495249        1.46668426743047        1.63814582343653
C            6.71194400268251        2.03180510735350        0.47164719408906
C            5.36126362201160        2.01159714568787        0.15091002745471
H            5.32076240797494        0.93826436537949       -2.33991455298464
H            6.67710126591224        2.06092423239501       -2.22358252537262
H            5.29454911654649        2.45582050278614       -3.24021799414717
H            4.99861534076528        4.67511344884590       -1.97264866562824
H            4.80911263437601        4.65482960327570       -0.21881997721071
H            6.37295943337382        4.28427712851670       -0.94583661641212
H            3.40943497919189        3.67185020715090       -3.11451856880465
H            1.00482452373781        3.49701438633754       -3.49096289642150
H           -0.40459502306765        2.22197567769583       -1.89997602974187
H            0.61619911088447        1.17685980586452        0.06216238907495
H            2.97123819202733       -1.31385673139397        1.15106192848460
H            1.31928696238756       -2.46954693413837        2.60814546731484
H           -0.93193543489510       -3.27113042842791        1.60064694550048
H           -2.81538434990248       -4.65777285808055        0.56614808814279
H           -3.09295386968052       -7.07933931165098        0.16567642746237
H           -1.88459393658335       -8.20538940412222       -1.64331410255634
H           -0.36773520111498       -6.94220409277211       -3.13134909414015
H            1.15128177620345       -4.98183712012153       -4.36624508519806
H            2.25399193497465       -2.86590752417431       -5.01217305079568
H            1.81526688584018       -0.79519822424783       -3.77678795314890
H            0.24502794028284       -0.75984785251304       -1.87294137397493
H           -2.27045120905224       -0.79663530902944       -1.64572229386024
H           -4.73450607404599       -0.83674022132628       -1.41539911053753
H           -6.55928537195223       -0.24047750953714       -2.96552518875365
H           -7.11310659121765        2.10212876090833       -3.42243982924432
H           -5.86961303615351        3.93298179771904       -2.32022586508344
H           -4.13157914496506        5.43902352264450       -0.78972772865601
H           -2.36105549232785        6.21438909824349        0.75194176903806
H           -0.91898788474904        4.60996072305758        1.91142460685685
H           -1.20764881784456        2.17764441044650        1.59274569450754
H           -2.76606425230276        0.49103301465286        2.42930920087002
H           -0.24142054846428        1.29342544056410        3.87115017121951
H            1.42904724641182        2.47536750305077        2.44139527508519
H            4.27614077289044        0.38991853664424        2.94353148886981
H            6.66739184283974        0.44371867266757        3.47705949244761
H            8.25908851051692        1.49310347050189        1.89130826787937
H            7.43518037729354        2.50186221649114       -0.17097468437492
