  79
 
 C          4.2474795655        4.4677698262       -0.0296122553
 C          3.9007194023        3.6897879392        1.0645331292
 C          2.7706837972        2.8949332390        0.9920080005
 C          2.0243650561        2.8973097985       -0.1872342509
 C          0.8137206661        2.0715955325       -0.3481532988
 C         -0.3131240709        2.6310617320       -0.9460364888
 C         -1.4830464990        1.9137004535       -1.0872210571
 C         -1.5503711878        0.5988150863       -0.6306429230
 N         -2.7295224274       -0.1447175574       -0.7712896320
 C         -2.8258253028       -1.3976850575       -1.3480978505
 C         -1.8420707825       -2.1887434376       -1.9250903867
 C         -2.2240485893       -3.4038335672       -2.4615555137
 C         -3.5517678813       -3.8279671061       -2.4371329053
 C         -4.5398724750       -3.0369332110       -1.8862334355
 C         -4.1775683224       -1.8112758386       -1.3416134277
 C         -4.9184562469       -0.7508371075       -0.7256565008
 C         -6.2502811688       -0.5276230092       -0.4050383526
 O         -7.3088436244       -1.3514307328       -0.6373887750
 C         -8.4062971385       -0.7023559011       -0.1477959186
 C         -9.7094567208       -1.1641616918       -0.1677064364
 C        -10.6798691532       -0.3459563778        0.3849234104
 C        -10.3570023889        0.8905450210        0.9381514682
 C         -9.0543285649        1.3502785487        0.9564207948
 C         -8.0627395473        0.5467594206        0.4074344465
 C         -6.6381315605        0.6611622573        0.2383854205
 C         -5.6946324542        1.6330028169        0.5799494438
 C         -4.3667901828        1.4354428338        0.2700093380
 C         -3.9916041277        0.2641222703       -0.3902033398
 C         -0.4262855008        0.0159248614       -0.0569307743
 C          0.7521242092        0.7383435931        0.0772792928
 N          1.8785447893        0.0966200819        0.6211842754
 C          1.9439552000       -0.4892909321        1.8694606219
 C          0.9710864830       -0.5823303655        2.8548793383
 C          1.3134916570       -1.2076060874        4.0388674771
 C          2.5918918104       -1.7237393565        4.2478108990
 C          3.5696017027       -1.6191508009        3.2785951672
 C          3.2476734351       -0.9944440744        2.0799748906
 C          3.9876670280       -0.6983463112        0.8891534518
 C          5.2816080766       -0.9234232859        0.4399670405
 O          6.2935982226       -1.5469252280        1.1036862242
 C          7.3658820992       -1.5305329388        0.2575813122
 C          8.6185666411       -2.0586723123        0.5100273446
 C          9.5701472848       -1.9367355304       -0.4881351986
 C          9.2780000006       -1.3076971226       -1.6957401822
 C          8.0253186327       -0.7814843712       -1.9460133449
 C          7.0530140812       -0.8930883533       -0.9598453678
 C          5.6754071572       -0.4941546746       -0.8398205148
 C          4.7748320360        0.1511417032       -1.6911007684
 C          3.4839707288        0.3826531742       -1.2708349717
 C          3.1083304677       -0.0231409932        0.0103655452
 N          2.3426459186        3.6719191913       -1.2223563581
 C          3.4205937988        4.4288347370       -1.1420506367
 H          5.1259504652        5.0934338748       -0.0166781707
 H          4.5003082552        3.7028230917        1.9633260962
 H          2.4640387654        2.2992522029        1.8377539054
 H         -0.2509351749        3.6485529846       -1.2991670435
 H         -2.3428133886        2.3585164341       -1.5635387572
 H         -0.8131836237       -1.8655006454       -1.9676772704
 H         -1.4757689010       -4.0383258863       -2.9134914540
 H         -3.8077100913       -4.7860167622       -2.8650807871
 H         -5.5730839664       -3.3497825635       -1.8775597533
 H         -9.9509014649       -2.1234668724       -0.5978610743
 H        -11.7082266260       -0.6748127343        0.3866128720
 H        -11.1431115721        1.4993194262        1.3598161554
 H         -8.8077286854        2.3094548541        1.3853985514
 H         -6.0097590078        2.5308460517        1.0881114691
 H         -3.6258092374        2.1708198760        0.5416044128
 H         -0.4623033222       -1.0071461804        0.2856701746
 H         -0.0177480964       -0.1755106873        2.7052870686
 H          0.5743178918       -1.2965407888        4.8213951946
 H          2.8182286062       -2.2065159827        5.1870475459
 H          4.5645188849       -2.0068007857        3.4376672562
 H          8.8363793039       -2.5441830126        1.4483227813
 H         10.5589092098       -2.3386456161       -0.3256633013
 H         10.0479379146       -1.2322819171       -2.4492779670
 H          7.8013416130       -0.2956441335       -2.8833704377
 H          5.0920089447        0.4587927490       -2.6751504234
 H          2.7738595577        0.8712343353       -1.9196162710
 H          3.6283037157        5.0306869041       -2.0179992393
