51
 xtb: 6.7.1 (edcfbbe)
C            5.01601164650044       -0.19282501653194       -0.14610068797794
C            3.69128697181153       -0.89494441495469       -0.09170257074730
C            3.61974926360153       -2.28103816458281       -0.00348839893958
C            2.39724490696431       -2.91709673207035        0.06115248437964
C            1.21223378084968       -2.18189611216896        0.05137425148287
C            1.26310432766174       -0.78672238514234       -0.02150070478885
C            2.50553174648235       -0.17372403240108       -0.09910441855204
C           -0.00196963949705        0.06424150147100       -0.00392195313480
C            0.07885389240609        0.88397279086077        1.28015765183823
C           -0.43757270713993        0.35982871732396        2.46046948285874
C           -0.32340950856066        1.04770138509133        3.65544154307433
C            0.32047012979073        2.27246809057138        3.69623202532005
C            0.85475329138121        2.79618512371814        2.53178960339525
C            0.73942586827786        2.10680188711025        1.33719388929444
C           -0.08075920128243        0.90325297129630       -1.27386297651494
C           -0.70233200570063        2.14700394644474       -1.30684056131500
C           -0.81661649490656        2.85140240820453       -2.49305980295984
C           -0.31993980813507        2.32221699111383       -3.67148690758566
C            0.28415252738027        1.07655533110750       -3.65421410758793
C            0.39633817712304        0.37340636665896       -2.46816326362185
C           -1.26494578306665       -0.79022340057801        0.00574348491005
C           -2.51051207656543       -0.18057360421901       -0.01085448587695
C           -3.69422474069814       -0.90684704151146        0.00095197523607
C           -5.01767542835201       -0.20062214216086       -0.02971415876560
C           -3.61623808573456       -2.29438123823637        0.02303301769014
C           -2.38965952846935       -2.92707411336967        0.04514657484458
C           -1.20791801203822       -2.18736750276067        0.04160087888352
N            0.00365142135433       -2.83872833866425        0.10357526236370
H            5.33476958396390        0.03691172869753        0.93419387514884
H            5.78006585440400       -0.82165462448630       -0.54102319895794
H            4.94794649212463        0.73923362155079       -0.63600978556557
H            4.52522872994583       -2.87371412058892       -0.00583548377702
H            2.34067624085115       -4.00051574101702        0.04923910496200
H            2.55830958238706        0.90099537689341       -0.10401656345653
H           -0.91276793794659       -0.59882767730365        2.45494464391602
H           -0.71313790739973        0.63064508906156        4.56224201389858
H            0.40801841888182        2.83364053404978        4.61710464625850
H            1.34213363707172        3.77329273299724        2.53094890356158
H            1.13878849408039        2.55382971115571        0.42720955478207
H           -1.11944976074151        2.56649533366314       -0.41422603800090
H           -1.32227643233809        3.79447567950962       -2.51365501195138
H           -0.40740260753971        2.85258317634005       -4.60723118031908
H            0.69303015630562        0.63897252861070       -4.56502537878706
H            0.89141228403953       -0.59915736756868       -2.46212668947794
H           -2.56175575290884        0.89971441573900        0.04709995908795
H           -5.79593501939096       -0.83516930141621        0.44602946635074
H           -4.96596598982560        0.72036430235699        0.61478791072641
H           -5.30042164735603        0.06647687711270       -0.98745211337379
H           -4.52327685940573       -2.87906110435959        0.01554471960859
H           -2.33727361742901       -4.00357613296198        0.00413667322265
H            0.00157062337205       -3.84698070852692        0.03417460554371
