  71
 
 C         -4.9865119047        6.8440171050       -1.8352234524
 C         -4.7902038540        6.5671108700       -0.3492788808
 C         -4.4698156752        5.1042927218       -0.0471699497
 C         -3.1005080675        4.6675039163       -0.5862030677
 C         -2.7938797531        3.2680887723       -0.1842191230
 C         -1.9632456902        2.8330371461        0.8066216123
 C         -1.9689818302        1.4344885003        0.9429033531
 C         -2.8086747439        0.8106822911        0.0377941869
 S         -3.6089513476        1.9441059780       -0.9758046571
 C         -2.8480606888       -0.6102083801        0.1365943677
 S         -3.7121324269       -1.8274480479       -0.7144416765
 C         -2.9680870067       -3.0718933673        0.2560607115
 C         -3.3522287389       -4.4946318290        0.0503938645
 C         -4.7411340228       -4.7769324304        0.6399482408
 C         -5.1417482185       -6.2479767433        0.5436509507
 C         -5.3576693548       -6.7186666855       -0.8899028987
 C         -2.1119538968       -2.5500618301        1.1811324931
 C         -2.0412148141       -1.1478732394        1.1230765203
 P         -1.1335577961        0.1842206413        1.9687153522
 O         -1.2428091922        0.2885808700        3.4256505620
 C          0.5695996399        0.0900987413        1.3516269942
 C          1.5971113446        0.1071640643        2.2835887054
 C          2.9114693104        0.0281147704        1.8684149871
 C          3.2058895077       -0.0594988811        0.5087060855
 N          4.5334482564       -0.1353842699        0.0803437844
 C          5.5646071460        0.6917192768        0.4882849336
 C          5.5356701680        1.7896148424        1.3357663125
 C          6.7196445978        2.4688581623        1.5521702178
 C          7.9062150829        2.0779999629        0.9363146550
 C          7.9352694231        1.0031117542        0.0705482676
 C          6.7578614616        0.3049343427       -0.1624524353
 C          6.4248772701       -0.8163711095       -0.9964526441
 C          7.1672118658       -1.6269760409       -1.8448195656
 C          6.5285424191       -2.6636069001       -2.4955275176
 C          5.1718760827       -2.9064322468       -2.2949062463
 C          4.4125570398       -2.1132995919       -1.4555582645
 C          5.0427554346       -1.0530406320       -0.8205982828
 C          2.1684980536       -0.0705633096       -0.4254142136
 C          0.8572501851       -0.0011661894       -0.0046517754
 H         -5.3063117579        7.8723407229       -1.9866854923
 H         -5.7473198946        6.1846890498       -2.2474876120
 H         -4.0631062044        6.6946401234       -2.3888927554
 H         -5.7059328439        6.8339039916        0.1830872447
 H         -3.9880900065        7.2001880165        0.0369463236
 H         -5.2422404413        4.4648421612       -0.4807551605
 H         -4.4799758909        4.9528654809        1.0349064914
 H         -3.0979722843        4.7433147512       -1.6750880347
 H         -2.3257500993        5.3272963889       -0.1896461649
 H         -1.3728929010        3.4916613225        1.4187201100
 H         -3.3583582599       -4.7204726942       -1.0174900223
 H         -2.6131465283       -5.1345564645        0.5373359899
 H         -4.7387860746       -4.4757906724        1.6902917725
 H         -5.4793171883       -4.1631026524        0.1185779926
 H         -4.3741379612       -6.8636218077        1.0181052716
 H         -6.0689331669       -6.3874951749        1.1040048151
 H         -6.0825089602       -6.0828066659       -1.3936766858
 H         -5.7338138397       -7.7390162868       -0.8976565832
 H         -4.4292252046       -6.6988584663       -1.4548127450
 H         -1.5565003583       -3.1488670274        1.8810853196
 H          1.3440634312        0.1737116375        3.3319031473
 H          3.7148548530        0.0149283261        2.5895883827
 H          4.6184610809        2.1142695675        1.8033989477
 H          6.7233316845        3.3244167693        2.2112034538
 H          8.8111193540        2.6328891835        1.1340864449
 H          8.8503986578        0.7103130537       -0.4214792385
 H          8.2226930075       -1.4492910004       -1.9848979753
 H          7.0865057235       -3.3043972519       -3.1618296500
 H          4.7027438256       -3.7358596248       -2.8032764502
 H          3.3665520611       -2.3245865997       -1.2918551859
 H          2.4031188631       -0.1156326249       -1.4784287334
 H          0.0514930577       -0.0076255377       -0.7249667252
