  88
 
 C        -10.3646292861       -0.5728958763       -0.7163041564
 C         -9.1056214460       -1.3213971150       -0.2400231343
 C         -9.4715111503       -2.7504073687        0.2030229582
 C         -8.5187562284       -0.5841179377        0.9465769411
 C         -9.2811735888       -0.4150108890        2.0939020945
 C         -8.7889904831        0.2318221044        3.2124284703
 C         -7.4924140140        0.7186270491        3.2002228080
 C         -6.7130101890        0.5664462636        2.0751705315
 C         -7.2142472515       -0.0714902791        0.9332144659
 N         -6.4123472160       -0.1965052084       -0.1838585329
 C         -5.0975709360        0.3508641534       -0.1558026232
 C         -4.9009452445        1.7211887767       -0.3239917446
 C         -3.6316643063        2.2435575965       -0.2889139787
 C         -2.5052544386        1.4193409895       -0.0959896836
 C         -1.2006960511        2.0226906010       -0.0706370533
 C          0.0000037915        1.3197661522       -0.0168901298
 C          1.2013766982        2.0228857347        0.0157849059
 C          2.5054009948        1.4194127945        0.0584139262
 C          3.6326822141        2.2480528922        0.2256602830
 C          4.9015919796        1.7259385707        0.2747355343
 C          5.0970283527        0.3510838873        0.1468170815
 N          6.4114508336       -0.1961235503        0.1885987929
 C          6.8475137033       -0.8053649185        1.3482813735
 C          6.0032910122       -0.8477885318        2.4652795146
 C          6.4024987673       -1.4624166398        3.6311516920
 C          7.6568894841       -2.0442436093        3.7098238600
 C          8.5008795765       -1.9869657060        2.6161375739
 C          8.1265505008       -1.3729318545        1.4290991893
 C          9.1041175408       -1.3209277601        0.2725624527
 C         10.3636152856       -0.5614216525        0.7297364900
 C          9.4691259349       -2.7608139222       -0.1345353970
 C          8.5174246933       -0.6134262960       -0.9321124553
 C          9.2798087038       -0.4737517691       -2.0834258877
 C          8.7876875366        0.1444774120       -3.2180317314
 C          7.4911130732        0.6313964748       -3.2182144908
 C          6.7117810176        0.5081232547       -2.0895576867
 C          7.2131247685       -0.1001751946       -0.9316062021
 C          3.9966536892       -0.4852801624       -0.0276384014
 C          2.7244240654        0.0364545373       -0.0680739937
 N          1.1546682540        3.3973015687        0.0077686316
 C          0.0012451880        4.0025964974       -0.0570106629
 N         -1.1527797200        3.3966890174       -0.1036235072
 C         -2.7255260612        0.0409600743        0.0715206859
 C         -3.9981275050       -0.4807873737        0.0449584311
 C         -6.8483825229       -0.8347451067       -1.3277764533
 C         -6.0035479680       -0.9065821036       -2.4428286828
 C         -6.4028709226       -1.5500644622       -3.5929646061
 C         -7.6579472319       -2.1321738558       -3.6575748573
 C         -8.5023441008       -2.0464848488       -2.5660562233
 C         -8.1279081534       -1.4030819931       -1.3947195589
 H        -10.0995879283        0.4355821318       -1.0282130271
 H        -10.8232157655       -1.0829417311       -1.5587629211
 H        -11.0994298544       -0.5036542958        0.0808181894
 H         -8.5782918527       -3.2738077272        0.5389381034
 H         -9.9093423379       -3.3108711104       -0.6181643736
 H        -10.1857682571       -2.7313698735        1.0213494562
 H        -10.2898447131       -0.7984938136        2.1227129248
 H         -9.4102671221        0.3485910177        4.0871611698
 H         -7.0868504655        1.2162744150        4.0681137039
 H         -5.7013552729        0.9403748260        2.0709312483
 H         -5.7572293137        2.3619686551       -0.4782548706
 H         -3.4683440450        3.3026734322       -0.4151362033
 H         -0.0004809017        0.2426946059       -0.0008672791
 H          3.4703345321        3.3105724769        0.3205972382
 H          5.7585319298        2.3703485448        0.4089208723
 H          5.0290939496       -0.3882543441        2.4091461677
 H          5.7347258347       -1.4856643046        4.4790829273
 H          7.9789572662       -2.5323139383        4.6169246048
 H          9.4798161498       -2.4346931997        2.6968887822
 H         10.0991840987        0.4547037762        1.0163196073
 H         10.8220557836       -1.0504513175        1.5846425646
 H         11.0983222413       -0.5125886270       -0.0689787925
 H          8.5755594181       -3.2919709228       -0.4570899051
 H          9.9067798569       -3.3007496563        0.7003817584
 H         10.1832588092       -2.7627161055       -0.9531872861
 H         10.2883857660       -0.8580824772       -2.1025263485
 H          9.4089459012        0.2388749014       -4.0954691634
 H          7.0854395820        1.1065782134       -4.0985542260
 H          5.7000907262        0.8819132473       -2.0950308737
 H          4.1556353805       -1.5493049539       -0.1316874910
 H          1.8937622432       -0.6360625974       -0.2139772703
 H          0.0017311478        5.0851378653       -0.0732258296
 H         -1.8955749558       -0.6275373757        0.2384722173
 H         -4.1581177141       -1.5411284490        0.1803487014
 H         -5.0287697361       -0.4470620362       -2.3976732717
 H         -5.7346655236       -1.5956339901       -4.4396488044
 H         -7.9801550828       -2.6425848324       -4.5522487384
 H         -9.4816830400       -2.4951654836       -2.6359239328
