  130
 
 C         14.8506838903        3.1426248211        0.1428807290
 C         13.6737477791        3.3928692261       -0.5449105786
 C         12.6844218853        2.4309963323       -0.6128318102
 C         12.8574260450        1.1989548589        0.0193737811
 N         11.8568159891        0.2219232222       -0.0434521091
 C         12.2074957877       -1.1290275401       -0.1545037057
 C         13.2970208942       -1.5143594780       -0.9366605666
 C         13.6443454874       -2.8477054579       -1.0372233011
 C         12.9114456402       -3.8165184954       -0.3700901152
 C         11.8252109698       -3.4396830258        0.4038250751
 C         11.4741416771       -2.1082507261        0.5167336233
 C         10.5108221090        0.5939988390        0.0036181466
 C         10.0929488655        1.6600075715        0.8032195994
 C          8.7663947098        2.0309704199        0.8377392792
 C          7.8035881805        1.3486162701        0.0904184696
 C          6.3951365375        1.7467615043        0.1270525391
 C          6.0365756763        3.0957304705        0.2006346266
 C          4.7131165090        3.4844602328        0.2133908391
 C          3.6838794555        2.5421728667        0.1655338681
 N          2.3972204537        2.8827435891        0.1754491692
 C          1.4320200290        1.9691004627        0.1333178038
 C          0.0576283098        2.3509626039        0.1335237610
 C         -0.2811497074        3.7157674439        0.1650590345
 C         -1.5867974447        4.1225256864        0.1542791781
 C         -2.6236042679        3.1737148712        0.1193160973
 C         -4.0287605719        3.5921128911        0.1034820441
 C         -4.4427617913        4.6968756979       -0.6421524305
 C         -5.7687804181        5.0706630155       -0.6873813312
 C         -6.7314237252        4.3572614519        0.0299991211
 N         -8.0782435401        4.7239256511       -0.0216220057
 C         -8.4356042359        6.0754191321       -0.1055895460
 C         -9.5120178400        6.4740646423       -0.8987905973
 C         -9.8639612069        7.8078988606       -0.9743459478
 C         -9.1486582908        8.7638003793       -0.2705342198
 C         -8.0761941869        8.3735027807        0.5157657940
 C         -7.7208759412        7.0413134510        0.6036982067
 C         -9.0738938130        3.7395633735        0.0034063545
 C         -8.8843132202        2.5231974940       -0.6539254274
 C         -9.8665077121        1.5522989964       -0.6187382443
 C        -11.0538580225        1.7790062716        0.0591254517
 C        -11.2504914119        2.9880369908        0.7073049076
 C        -10.2702023924        3.9614265805        0.6865430197
 C         -6.3203529591        3.2651966407        0.7973597411
 C         -4.9953770870        2.8881139673        0.8240932897
 C         -2.2952727311        1.8293703339        0.0915184933
 C         -0.9712409227        1.3789704990        0.0948372422
 C         -0.6198256732       -0.0222728527        0.0575700894
 C         -1.5758584305       -1.0432598944        0.0279050827
 C         -1.2313297724       -2.3832227694        0.0064750933
 C         -2.2748629625       -3.4140019095       -0.0125251912
 C         -3.4248439514       -3.2547135548       -0.7872183248
 C         -4.4158337798       -4.2123348994       -0.7969956061
 C         -4.2970196807       -5.3625597691       -0.0144287859
 N         -5.3111607732       -6.3242958105       -0.0057819038
 C         -4.9881152494       -7.6836296550        0.0810202255
 C         -5.7845318771       -8.5545921290        0.8255093309
 C         -5.4641233528       -9.8962558825        0.9027898621
 C         -4.3454442395      -10.3900095084        0.2505399204
 C         -3.5483680599       -9.5284661166       -0.4864072222
 C         -3.8649882939       -8.1867763367       -0.5768297192
 C         -6.6514713568       -5.9257688724       -0.0796444936
 C         -7.0820173745       -4.7682886311        0.5702977964
 C         -8.4039723115       -4.3751540552        0.4899299492
 C         -9.3185179641       -5.1297956658       -0.2275976451
 C         -8.8974823753       -6.2829192929       -0.8707690854
 C         -7.5756578363       -6.6795139732       -0.8040846757
 C         -3.1476778886       -5.5297954155        0.7604353708
 C         -2.1533718548       -4.5747645346        0.7520866822
 C          0.1296346498       -2.7331268122        0.0120288028
 C          1.0900113453       -1.7589319041        0.0313552811
 C          0.7450178848       -0.3963811503        0.0561321708
 C          1.7802616073        0.5881133187        0.0845164774
 N          3.0582902977        0.2353095650        0.0669172573
 C          4.0396194799        1.1431890782        0.1009549122
 C          5.3826127851        0.7878596821        0.0779039446
 C          8.2282416524        0.2768707617       -0.6984564335
 C          9.5548844629       -0.0917219718       -0.7489727358
 C         14.0426707335        0.9537982304        0.7140644724
 C         15.0294043763        1.9191563665        0.7688958174
 H         15.6227393219        3.8957290054        0.1909785161
 H         13.5278926263        4.3414345806       -1.0408810188
 H         11.7729140770        2.6236872943       -1.1596263410
 H         13.8631658520       -0.7619042736       -1.4660436260
 H         14.4886709284       -3.1325474420       -1.6478955525
 H         13.1846574922       -4.8577427752       -0.4527817327
 H         11.2510746693       -4.1872782316        0.9315225021
 H         10.6338765899       -1.8157947803        1.1294263474
 H         10.8179645900        2.1891379088        1.4044577829
 H          8.4631438006        2.8442030604        1.4803834628
 H          6.8069063583        3.8520297003        0.2172362698
 H          4.4421182882        4.5288746869        0.2536893116
 H          0.5265359677        4.4318551699        0.1994162055
 H         -1.8263099140        5.1747494858        0.1956731749
 H         -3.7186313721        5.2475422744       -1.2242811814
 H         -6.0723633492        5.9131511488       -1.2915277837
 H        -10.0644176474        5.7318929739       -1.4565217633
 H        -10.6975573339        8.1036671668       -1.5944934327
 H         -9.4249343459        9.8055465735       -0.3343872161
 H         -7.5164956065        9.1110165588        1.0723893323
 H         -6.8917001701        6.7378513370        1.2260770445
 H         -7.9650364697        2.3487973689       -1.1937470481
 H         -9.7065182173        0.6154235241       -1.1323349500
 H        -11.8206084185        1.0192872110        0.0818268375
 H        -12.1710911989        3.1720898656        1.2417217747
 H        -10.4216620364        4.8982361082        1.2026593493
 H         -7.0499536397        2.7182816406        1.3766123751
 H         -4.6967927516        2.0517384189        1.4388769157
 H         -3.1007678624        1.1146716291        0.0401762361
 H         -2.6242697014       -0.7927327190        0.0477247470
 H         -3.5272457556       -2.3809964794       -1.4140352451
 H         -5.2904690115       -4.0799075058       -1.4170644596
 H         -6.6509609692       -8.1706020649        1.3440442818
 H         -6.0878689403      -10.5592537627        1.4845476042
 H         -4.0966526843      -11.4385281274        0.3158190813
 H         -2.6772861838       -9.9052205014       -1.0025186921
 H         -3.2485089462       -7.5195992761       -1.1615184997
 H         -6.3740280494       -4.1847895719        1.1405883506
 H         -8.7234800703       -3.4776637587        0.9994235141
 H        -10.3516744403       -4.8217191318       -0.2854246220
 H         -9.6019012443       -6.8746500103       -1.4370424612
 H         -7.2483786612       -7.5727156151       -1.3159885295
 H         -3.0466912367       -6.4105555560        1.3777559343
 H         -1.2823032855       -4.7120476199        1.3757565975
 H          0.4139945998       -3.7744092930       -0.0222253892
 H          2.1404461228       -2.0096531032        0.0267852893
 H          5.6225297522       -0.2642442083        0.0496689509
 H          7.5094425032       -0.2518488436       -1.3068265697
 H          9.8647280213       -0.9097559382       -1.3829680725
 H         14.1800536763        0.0052722878        1.2124498658
 H         15.9410793937        1.7172914108        1.3120911680
