  63
 
 C         -6.0335233844        0.0319294757       -1.5947662169
 C         -5.3773513230        0.0512644183       -0.2011936311
 C         -6.4522322675        0.1866048216        0.8936766676
 C         -4.6369920763       -1.2568269111       -0.0006230587
 C         -5.3376552687       -2.4542708074       -0.0672552765
 C         -4.7136066376       -3.6804682188        0.0683191870
 C         -3.3434984888       -3.7235125574        0.2539301512
 C         -2.6238932093       -2.5488475777        0.3256551584
 C         -3.2583676062       -1.3063961290        0.2282788442
 N         -2.5049501515       -0.1412587814        0.3207288701
 C         -1.1300875957       -0.2462155929        0.6359044241
 C         -0.7571065864       -0.6765943956        1.9301416517
 C          0.5573350670       -0.7664634620        2.2889688772
 C          1.5626015839       -0.4311268096        1.3592956629
 N          2.8585142126       -0.4318935600        1.7298719332
 C          3.7608887316       -0.1347862862        0.8274281393
 C          5.1534923093        0.0169288859        1.2618885592
 C          5.7110618431       -0.8528499859        2.1971313643
 C          7.0296127643       -0.6625374836        2.5709319039
 C          7.7369598570        0.3918052624        2.0125160907
 C          7.0811287027        1.2149109231        1.1087337644
 N          5.8263517341        1.0393547771        0.7371777357
 C          3.3944245132        0.0865627776       -0.5369465572
 C          4.4193527157        0.1588655171       -1.5841776199
 C          4.3060023327        1.0662919040       -2.6355611374
 C          5.2997338086        1.0876248266       -3.5983227953
 C          6.3580484690        0.1982141819       -3.4859917732
 C          6.3644912681       -0.6802785952       -2.4122553021
 N          5.4267201625       -0.7059838901       -1.4831561137
 N          2.1383317930        0.1786195886       -0.8949429609
 C          1.1912838129       -0.0361679110        0.0434319812
 C         -0.1687220673        0.0655261444       -0.2960481024
 C         -3.0786183160        1.1148917035        0.1493120704
 C         -2.2945515498        2.2650384419        0.2801755495
 C         -2.8379503555        3.5218097688        0.1132379960
 C         -4.1831425381        3.6571430300       -0.1788621351
 C         -4.9671800362        2.5232544777       -0.2792844620
 C         -4.4462531293        1.2459883122       -0.1150141553
 H         -6.7293778362       -0.7973216142       -1.6843681010
 H         -6.5774762083        0.9536979747       -1.7799597639
 H         -5.2690622920       -0.0766246393       -2.3623653339
 H         -7.1478451332       -0.6470251748        0.8574300315
 H         -7.0162967077        1.1068698377        0.7718257925
 H         -5.9815627412        0.1994133642        1.8752921388
 H         -6.4039330732       -2.4351877410       -0.2326967666
 H         -5.2897281091       -4.5918773636        0.0159879753
 H         -2.8292631527       -4.6696607457        0.3370560601
 H         -1.5527699823       -2.5941411842        0.4507105390
 H         -1.5377078955       -0.9203118070        2.6354718943
 H          0.8556205284       -1.0727182518        3.2793372909
 H          5.1127820611       -1.6536416388        2.6015440796
 H          7.4980530702       -1.3230726764        3.2858268871
 H          8.7667281884        0.5763431158        2.2744704423
 H          7.5791330838        2.0626632665        0.6551139327
 H          3.4586310464        1.7320880650       -2.6743621667
 H          5.2493861667        1.7834802474       -4.4229588533
 H          7.1546601332        0.1806813862       -4.2128328213
 H          7.1574933680       -1.4061980276       -2.2834021368
 H         -0.4347555978        0.3818095287       -1.2930279563
 H         -1.2468023016        2.1749537578        0.5221022254
 H         -2.2070281069        4.3923949507        0.2164980866
 H         -4.6205087573        4.6344801352       -0.3158829116
 H         -6.0190198447        2.6427529512       -0.4891468490
