63

N      5.958051    2.944847    1.572366
C      6.409598    1.992546    1.085288
C      7.001005    0.832008    0.478383
C      8.402200    0.742811    0.444370
C      9.027219   -0.366915   -0.123248
C      8.258300   -1.394728   -0.659637
C      6.864357   -1.313590   -0.629525
C      6.210229   -0.202457   -0.063860
C      4.739215   -0.165536   -0.057123
C      4.006598   -1.024515    0.776669
C      2.608437   -0.996363    0.788145
C      1.920289   -0.101133   -0.037173
N      0.493840   -0.063151   -0.023377
C     -0.344815   -1.180774   -0.028583
C     -0.069637   -2.559917   -0.108766
C     -1.139868   -3.463804   -0.115476
C     -2.470100   -3.035592   -0.066340
C     -3.578974   -4.004040   -0.074792
C     -4.603060   -3.923974   -1.033268
C     -5.655707   -4.843204   -1.041861
C     -5.702379   -5.858564   -0.090048
C     -4.697765   -5.955753    0.869344
C     -3.645196   -5.036373    0.875827
C     -2.721528   -1.653280   -0.023989
C     -1.661029   -0.717488   -0.017772
C     -1.622367    0.707046   -0.008748
C     -2.630033    1.699406    0.006227
C     -2.303065    3.065911    0.051071
C     -3.357288    4.093670    0.069129
C     -3.368588    5.135184   -0.873714
C     -4.369152    6.110826   -0.858264
C     -5.375906    6.061786    0.102528
C     -5.383128    5.038533    1.046956
C     -4.382417    4.063106    1.029398
C     -0.951046    3.420330    0.094267
C      0.068042    2.459320    0.077562
C     -0.283047    1.097782   -0.006252
C      2.637556    0.758553   -0.875647
C      4.035368    0.720738   -0.886626
H      9.014171    1.540145    0.863711
H     10.112730   -0.429242   -0.146149
H      8.741607   -2.261684   -1.104348
H      6.280949   -2.126575   -1.060228
H      4.524491   -1.714951    1.440269
H      2.079604   -1.645615    1.482074
H      0.945313   -2.936862   -0.186412
H     -0.917108   -4.527910   -0.182072
H     -4.579892   -3.144671   -1.792569
H     -6.436511   -4.765561   -1.793867
H     -6.521183   -6.573101   -0.095732
H     -4.732791   -6.744666    1.616014
H     -2.876599   -5.122863    1.641256
H     -3.745747   -1.289073    0.007553
H     -3.672839    1.392087   -0.018902
H     -2.597022    5.185836   -1.639389
H     -4.361413    6.906542   -1.598449
H     -6.153725    6.820600    0.115716
H     -6.164962    4.998874    1.800812
H     -4.399839    3.278993    1.783860
H     -0.668883    4.470098    0.165129
H      1.102953    2.779967    0.152764
H      2.129786    1.437234   -1.557188
H      4.572700    1.389148   -1.557298
