  78
 
 C          1.6766269791        4.1583547040        1.2025025349
 C          0.6188303362        3.0943299388        0.9074591703
 C         -0.0471772369        2.6928055162        2.2411197009
 C         -0.4699642378        3.5987192585       -0.0218268894
 C         -0.7049989859        4.9385378806       -0.2896266911
 C         -1.7665267512        5.3312965353       -1.0873869578
 C         -2.6091721374        4.3834983752       -1.6396079543
 C         -2.3829289568        3.0408434151       -1.4040616993
 C         -1.3252909483        2.6509029972       -0.5932582893
 N         -1.0383252731        1.2923055893       -0.3793087325
 C         -1.9975082873        0.3389992997       -0.1761385956
 N         -3.2683433179        0.6591901412       -0.2618833380
 C         -4.1843706736       -0.3261505580        0.0352618531
 C         -5.5772922835        0.0100185918        0.0272922917
 C         -5.9921502371        1.3261309697       -0.2282974424
 C         -7.3326234118        1.6428297504       -0.2377676550
 C         -8.2886319607        0.6659063785        0.0051330425
 C         -7.8879083748       -0.6391606492        0.2628753621
 C         -6.5515366498       -0.9690734938        0.2758434024
 N         -3.7885321078       -1.5594851410        0.3011672535
 C         -2.5042557802       -1.8638360347        0.3281691043
 C         -2.0527981127       -3.2067724658        0.5315407896
 C         -2.9704390240       -4.2599986571        0.6666475437
 C         -2.5254549168       -5.5517772787        0.8339278807
 C         -1.1641576874       -5.8298371023        0.8670471981
 C         -0.2477573034       -4.7946708962        0.7391371478
 C         -0.6795786150       -3.4968630823        0.5776072143
 N         -1.5709636008       -0.8686292562        0.1606366710
 C          0.3165930604        0.9389947432       -0.3197295178
 C          0.7486380509       -0.2655532721       -0.8625092420
 C          2.0830315122       -0.6079894607       -0.7323467451
 C          2.8444112715       -1.7729713887       -1.0856657428
 C          2.5145319699       -2.9868229684       -1.6724553440
 C          3.5191762217       -3.9122646924       -1.8769718817
 C          4.8364833115       -3.6330436506       -1.5190649272
 C          5.1864343891       -2.4341806448       -0.9268370517
 C          4.1773212295       -1.5113237565       -0.6919401258
 N          4.2476967795       -0.2509263580       -0.1281337275
 C          5.4065362242        0.3658841378        0.3656412684
 C          5.7379714758        1.6548931455       -0.0421419924
 C          6.8771057359        2.2628165171        0.4519918795
 C          7.6962172566        1.5911628771        1.3444211687
 C          7.3695060333        0.3068747384        1.7474121806
 C          6.2272750052       -0.3061045485        1.2666441272
 C          2.9862118246        0.3013317897       -0.1395499149
 C          2.5534842573        1.5203994876        0.3679858842
 C          1.2109361429        1.8415493630        0.2887763677
 H          2.4121189808        3.7760287763        1.9054667377
 H          1.2154280658        5.0261191474        1.6661321745
 H          2.1825031460        4.4688661732        0.2909518031
 H         -0.5192772389        3.5612460227        2.6954950775
 H         -0.8067095666        1.9304878932        2.0890614947
 H          0.7008366818        2.2992305891        2.9262357085
 H         -0.0646936083        5.6981144417        0.1282155434
 H         -1.9339095900        6.3813924640       -1.2742391815
 H         -3.4355940843        4.6858791820       -2.2646059829
 H         -3.0196469509        2.2910352200       -1.8434947631
 H         -5.2416910966        2.0808807670       -0.4088180234
 H         -7.6422873123        2.6597282377       -0.4345820551
 H         -9.3384926665        0.9192556763       -0.0042949109
 H         -8.6311466031       -1.4002402314        0.4543878989
 H         -6.2296747672       -1.9796938675        0.4751921127
 H         -4.0250507423       -4.0334169255        0.6325736900
 H         -3.2392198580       -6.3568657588        0.9368082984
 H         -0.8213521595       -6.8461617970        0.9936009949
 H          0.8124204443       -5.0058356114        0.7664235382
 H          0.0282142311       -2.6865448542        0.4895980727
 H          0.0644997354       -0.9163956540       -1.3799866995
 H          1.4954622002       -3.1986282157       -1.9572881962
 H          3.2858653598       -4.8646238591       -2.3285767449
 H          5.6025548355       -4.3701597359       -1.7084405785
 H          6.2121288068       -2.2230050642       -0.6650139422
 H          5.1096509767        2.1649969366       -0.7570220091
 H          7.1305649638        3.2624670662        0.1318854656
 H          8.5870592510        2.0673368661        1.7246755323
 H          8.0030317806       -0.2182099055        2.4465524219
 H          5.9560899599       -1.2976416546        1.5965666294
 H          3.2589838453        2.1793740585        0.8456162401
