95

C     -1.580521    3.865031    2.026767
C     -2.052782    2.648023    2.497558
C     -2.882951    1.865728    1.691877
C     -3.250958    2.271434    0.383621
C     -4.081192    1.526255   -0.500304
N     -4.496262    0.206303   -0.184852
C     -3.644081   -0.894237   -0.077472
C     -2.178403   -0.864940   -0.141237
C     -1.494465   -0.283934   -1.215500
C     -0.098366   -0.222693   -1.217062
C      0.642408   -0.754049   -0.151085
C      2.119242   -0.641861   -0.129020
C      2.916858   -1.689677   -0.693191
C      2.348258   -2.848405   -1.285739
C      3.123187   -3.862344   -1.848331
C      4.499903   -3.748286   -1.841793
C      5.090411   -2.624200   -1.267382
C      4.325745   -1.580669   -0.675013
C      4.898193   -0.421235   -0.079379
N      6.314782   -0.309118   -0.053370
C      7.065075    0.476387   -0.917677
C      6.672252    1.302382   -1.986317
C      7.666298    1.983725   -2.693699
C      9.007352    1.845862   -2.352575
C      9.389095    1.017363   -1.292001
C      8.404976    0.317112   -0.561030
C      8.455807   -0.589342    0.544023
C      9.508955   -1.122153    1.318264
C      9.222960   -2.007058    2.363408
C      7.909144   -2.364627    2.647284
C      6.848075   -1.851787    1.896785
C      7.145989   -0.967041    0.843680
C      4.130016    0.632241    0.491886
C      4.699649    1.781663    1.107751
C      3.920523    2.798810    1.656067
C      2.543731    2.696851    1.611315
C      1.958311    1.575235    1.025162
C      2.722144    0.518714    0.459093
C     -0.043798   -1.378439    0.900789
C     -1.439461   -1.440891    0.899929
N     -4.338306   -2.002698    0.070931
C     -5.662604   -1.639537    0.022780
C     -6.802009   -2.474588    0.073183
C     -6.594757   -3.868959    0.144731
C     -7.675828   -4.742136    0.180255
C     -8.965535   -4.231160    0.144755
C     -9.173540   -2.847184    0.078157
C     -8.101398   -1.916657    0.042389
C     -8.248631   -0.490318    0.000342
C     -9.512106    0.151886    0.007357
C     -9.651029    1.542341    0.016544
C     -8.525324    2.347331    0.032591
C     -7.261171    1.763508    0.015671
C     -7.099959    0.357093   -0.031232
C     -5.809353   -0.257825   -0.079074
C     -4.460924    2.026067   -1.757448
C     -4.000052    3.269922   -2.167981
C     -3.161822    4.009187   -1.333388
C     -2.783635    3.530638   -0.066895
C     -1.948220    4.304813    0.756079
H     -0.936609    4.479272    2.650729
H     -1.782512    2.304359    3.493059
H     -3.248143    0.929289    2.108695
H     -2.036242    0.135339   -2.059151
H      0.412910    0.254154   -2.050963
H      1.267384   -2.977700   -1.320591
H      2.644734   -4.731133   -2.292267
H      5.119062   -4.525536   -2.281707
H      6.177891   -2.573909   -1.293436
H      5.626709    1.413136   -2.259418
H      7.384848    2.629500   -3.522355
H      9.767000    2.383904   -2.914824
H     10.439398    0.913990   -1.035776
H     10.538239   -0.847249    1.106502
H     10.035245   -2.416386    2.958814
H      7.702213   -3.052253    3.464265
H      5.823931   -2.133986    2.124968
H      5.780052    1.901613    1.172897
H      4.395001    3.662039    2.114570
H      1.918734    3.479141    2.032247
H      0.869482    1.536918    1.018379
H      0.508734   -1.810853    1.732391
H     -1.953179   -1.927079    1.727010
H     -5.583115   -4.271317    0.167874
H     -7.509505   -5.814392    0.233574
H     -9.817738   -4.905643    0.171665
H    -10.205886   -2.510042    0.058219
H    -10.432000   -0.426075    0.018421
H    -10.641920    1.988733    0.029064
H     -8.625310    3.428938    0.066695
H     -6.412906    2.436861    0.068516
H     -5.090693    1.443560   -2.427889
H     -4.281105    3.662204   -3.142237
H     -2.805951    4.977881   -1.680848
H     -1.578648    5.268870    0.411923
