  64
 
 C          7.3317191980       -3.0418756261       -1.8530092996
 C          6.0609830931       -3.4027076779       -1.4098290797
 C          5.2375020189       -2.4995399756       -0.7658236882
 C          5.7122858957       -1.2090788819       -0.5780922994
 C          7.0101284529       -0.8407737915       -1.0026317030
 C          7.8190074464       -1.7667931546       -1.6481523459
 C          7.1926881072        0.5291657659       -0.6139221733
 C          8.2358494192        1.4340222272       -0.7609166075
 C          8.0737704045        2.7155061904       -0.2742227367
 C          6.8845544991        3.1036770676        0.3393986092
 C          5.8326462203        2.2221544223        0.4971015947
 C          5.9981276626        0.9255923654        0.0308037813
 N          5.1129608223       -0.1329894871        0.0440366258
 C          3.8241774471       -0.1130775316        0.5968100594
 C          3.6251168702        0.3337164334        1.9005298995
 C          2.3554961822        0.3751520295        2.4345009532
 C          1.2481418799       -0.0374760140        1.6881582901
 N          0.0000090570        0.0000455529        2.2816051177
 C         -1.2481299910        0.0375473213        1.6881701116
 C         -2.3554752015       -0.3750695024        2.4345324160
 C         -3.6251007741       -0.3336548026        1.9005715827
 C         -3.8241761146        0.1131083909        0.5968435429
 N         -5.1129640252        0.1329964994        0.0440793278
 C         -5.7122955577        1.2090604563       -0.5780887276
 C         -5.2375227702        2.4995191132       -0.7658633058
 C         -6.0610053668        3.4026534208       -1.4099139987
 C         -7.3317248508        3.0417861320       -1.8531115650
 C         -7.8189994691        1.7667049733       -1.6482185652
 C         -7.0101257686        0.8407236221       -1.0026377506
 C         -7.1926941603       -0.5291888491       -0.6138374942
 C         -8.2358615207       -1.4340475802       -0.7607745342
 C         -8.0737742730       -2.7155148654       -0.2740397898
 C         -6.8845463712       -3.1036658603        0.3395712965
 C         -5.8326366920       -2.2221362862        0.4972292400
 C         -5.9981236803       -0.9255922086        0.0308842551
 C         -2.7290573666        0.5495614350       -0.1428009953
 C         -1.4600204067        0.5278470701        0.3983881696
 C          1.4600173374       -0.5278056553        0.3983852148
 C          2.7290491985       -0.5495389424       -0.1428154785
 H          7.9434555154       -3.7763965121       -2.3555044203
 H          5.7129744904       -4.4125916112       -1.5706257584
 H          4.2612897216       -2.7937638628       -0.4106558814
 H          8.8094934312       -1.4910556540       -1.9776761180
 H          9.1515980263        1.1373395025       -1.2498495583
 H          8.8738026233        3.4337841546       -0.3756250768
 H          6.7816399504        4.1177526158        0.6970722692
 H          4.9086403563        2.5368009123        0.9586539664
 H          4.4732552977        0.6398781152        2.4941569658
 H          2.2107130739        0.7235377692        3.4475500623
 H          0.0000143155        0.0000556622        3.2911664849
 H         -2.2106812374       -0.7234277342        3.4475894553
 H         -4.4732325250       -0.6398003021        2.4942167610
 H         -4.2613023563        2.7937569936       -0.4107282939
 H         -5.7129914156        4.4125268300       -1.5707710794
 H         -7.9434721974        3.7762904440       -2.3556201839
 H         -8.8095028859        1.4909622685       -1.9776879438
 H         -9.1515917913       -1.1374020162       -1.2497640809
 H         -8.8737952680       -3.4338069780       -0.3754322044
 H         -6.7816358518       -4.1177201381        0.6973059532
 H         -4.9086392437       -2.5367558122        0.9588166035
 H         -2.8768129006        0.9075829121       -1.1505367476
 H         -0.6309406590        0.9120497352       -0.1742109235
 H          0.6309307306       -0.9120196769       -0.1741963277
 H          2.8767949474       -0.9075904136       -1.1505418733
