  85
 
 C          6.0046925707        3.9918496228        0.1954205492
 C          5.3694723754        3.2317080801       -0.7743514421
 C          5.4116946604        1.8525250656       -0.7182239228
 C          6.0852910084        1.2214665567        0.3269424387
 N          6.1563076253       -0.1765646133        0.3770590927
 C          5.1238616099       -1.1097257888        0.1932272466
 C          3.7519327544       -0.8715426682        0.2436970405
 C          2.8672821151       -1.9358407221       -0.1384291941
 C          1.5238673230       -1.7694436769       -0.1573890010
 C          0.9118462106       -0.5303120357        0.2033710656
 C         -0.5018824021       -0.3331102062        0.1231334697
 C         -1.0630110040        0.9622181907        0.0566162046
 C         -2.4264179500        1.1510166910       -0.0522353775
 N         -2.9422244096        2.4518137851       -0.1690822235
 C         -2.5203502945        3.4041334859       -1.0745454844
 C         -1.5513914559        3.3158881854       -2.0645567803
 C         -1.3390234293        4.4260236728       -2.8594772391
 C         -2.0740763430        5.5966094675       -2.6865403951
 C         -3.0560723502        5.6824884219       -1.7187971613
 C         -3.2877815464        4.5805249966       -0.9075098450
 C         -4.2148440122        4.3146739984        0.1574416326
 C         -5.1985905961        5.0704500313        0.7795731206
 C         -5.9144652757        4.5018681819        1.8153535419
 C         -5.6473762152        3.2034155601        2.2430231221
 C         -4.6715806426        2.4333998868        1.6402723650
 C         -3.9673174935        2.9881992167        0.5813831906
 C         -3.2990676554        0.0610033518       -0.0817172904
 C         -2.7640541419       -1.2268899528        0.0060527636
 N         -3.6224918425       -2.3359006349       -0.0382619447
 C         -3.4832574256       -3.4215789091       -0.8792782717
 C         -2.5342845885       -3.6616674788       -1.8633572600
 C         -2.6386534477       -4.8338927517       -2.5875533679
 C         -3.6641876178       -5.7462679558       -2.3506131991
 C         -4.6260464576       -5.5010733846       -1.3895743281
 C         -4.5421335805       -4.3303851382       -0.6491585432
 C         -5.3537787476       -3.7559875742        0.3884544198
 C         -6.5024843673       -4.1739486231        1.0450487991
 C         -7.0280028419       -3.3688744467        2.0375569781
 C         -6.4123484089       -2.1699677137        2.3888615398
 C         -5.2668605572       -1.7350325236        1.7505689208
 C         -4.7493468815       -2.5246813042        0.7338878903
 C         -1.4010909989       -1.4215684471        0.1063929302
 C          1.7907405496        0.4990859387        0.6560619537
 C          3.1373538760        0.3434838334        0.6875202912
 N          5.6288649059       -2.3596501693        0.0398508166
 C          6.9499484112       -2.2590754210        0.1782598199
 C          7.9399270345       -3.2547714586        0.1214713693
 C          9.2517024890       -2.8641059460        0.2501947412
 C          9.6062562423       -1.5216150926        0.4250212505
 C          8.6502591873       -0.5149594632        0.4922738696
 C          7.3283798235       -0.8923231519        0.3879764957
 C          6.7232641045        1.9851223739        1.3004908302
 C          6.6807678437        3.3653208367        1.2294027096
 H          5.9719432188        5.0695890619        0.1454108003
 H          4.8442711976        3.7167153356       -1.5835662458
 H          4.9244651740        1.2533338722       -1.4730707106
 H          3.3239342462       -2.8653992220       -0.4375103522
 H          0.9029352793       -2.5840429562       -0.4968291406
 H         -0.4225426890        1.8292498501        0.0656903283
 H         -0.9883511368        2.4077112120       -2.2180685452
 H         -0.5883977230        4.3834272331       -3.6347925682
 H         -1.8762738891        6.4434757623       -3.3265743494
 H         -3.6364758964        6.5842683346       -1.5951943865
 H         -5.3941762697        6.0829218014        0.4601844370
 H         -6.6862583012        5.0720947423        2.3103464611
 H         -6.2119118244        2.7912997848        3.0662740818
 H         -4.4551593937        1.4369809560        1.9928200807
 H         -4.3587136690        0.2084174773       -0.2157316919
 H         -1.7468056112       -2.9517725260       -2.0665704568
 H         -1.9102386677       -5.0457469869       -3.3561186242
 H         -3.7093035842       -6.6528929318       -2.9352447530
 H         -5.4298705158       -6.2007500503       -1.2175109434
 H         -6.9703922825       -5.1115269162        0.7856314044
 H         -7.9229666698       -3.6748323210        2.5583748686
 H         -6.8362998133       -1.5698787665        3.1803126721
 H         -4.7827276117       -0.8170206175        2.0449999471
 H         -1.0325051453       -2.4280124710        0.2205623577
 H          1.3679742860        1.4159435681        1.0383132438
 H          3.7521160235        1.1288094536        1.0984883964
 H          7.6582330510       -4.2850409753       -0.0208483798
 H         10.0354758880       -3.6062308425        0.2109088383
 H         10.6503557335       -1.2596848841        0.5080741084
 H          8.9386259908        0.5184805844        0.6118336468
 H          7.2312698694        1.4919349143        2.1159135993
 H          7.1731852702        3.9539574540        1.9892408776
