  68
 
 O          4.4577656812        2.4541406565       -0.6419125470
 C          4.9999570236        1.3581144071       -0.3278140291
 C          6.4087735534        1.3039386935        0.0163395857
 C          7.0834404680        2.5310633473        0.2128888327
 C          8.3860617630        2.5573491288        0.6433016755
 C          9.0840503263        1.3754856507        0.8919274592
 C          8.4570484708        0.1614946413        0.6694265924
 C          7.1491441280        0.1387238730        0.2293683654
 S          6.4412569031       -1.4240290825       -0.2325622045
 O          6.6882314925       -1.6333675520       -1.6474885152
 O          6.9054107187       -2.4786030731        0.6435476292
 C          4.7076254231       -1.1374445133        0.0026692003
 C          3.8820555692       -2.2150481254        0.2588733679
 C          2.5118421109       -2.0461820708        0.2763045293
 C          1.9608031629       -0.7785724128        0.0156774179
 C          0.5068577877       -0.5719493329        0.0268277851
 C         -0.0995104754        0.2668062893       -0.9111080895
 C         -1.4669215827        0.4490896370       -0.9061808302
 C         -2.2778178461       -0.1817614307        0.0374417751
 Si        -4.1502862505        0.0999570560        0.0277181438
 C         -4.9695327568       -1.0333931298       -1.2708433053
 C         -4.2221414794       -1.6013073628       -2.2946507452
 C         -4.8339910742       -2.3923494713       -3.2529194000
 C         -6.1976188310       -2.6248110673       -3.1947686039
 C         -6.9499425872       -2.0651398543       -2.1752928873
 C         -6.3370189210       -1.2761715592       -1.2170653600
 C         -4.9056134753       -0.3694574171        1.7104272200
 C         -5.1061159348       -1.7041596912        2.0494311586
 C         -5.6210901835       -2.0499478397        3.2865021480
 C         -5.9495425091       -1.0618829265        4.2003407068
 C         -5.7594604714        0.2700007532        3.8724126051
 C         -5.2436605373        0.6133084661        2.6343397118
 C         -4.4941963135        1.9164197758       -0.3885410663
 C         -3.6944713033        2.9184330533        0.1593729404
 C         -3.9411736755        4.2521903461       -0.1102341432
 C         -4.9931186306        4.6087074825       -0.9393032096
 C         -5.7946074216        3.6247024454       -1.4951113588
 C         -5.5456848574        2.2914970783       -1.2210485952
 C         -1.6663109304       -1.0162361493        0.9717788689
 C         -0.2995147511       -1.2086949505        0.9716434629
 C          2.8004139467        0.2926189553       -0.2226923743
 C          4.2030998399        0.1525874164       -0.1968587934
 H          6.5240598420        3.4362110567        0.0272950868
 H          8.8733180059        3.5089010059        0.7965373872
 H         10.1053301095        1.4014860501        1.2368453502
 H          8.9619618337       -0.7804587944        0.8193097399
 H          4.3396305987       -3.1795486334        0.4170218014
 H          1.8681961924       -2.8941629775        0.4452579355
 H          0.5080382620        0.7561463779       -1.6578055595
 H         -1.9173609549        1.0976108570       -1.6437044640
 H         -3.1578357355       -1.4280505090       -2.3451188582
 H         -4.2417691365       -2.8274125013       -4.0452141788
 H         -6.6734141648       -3.2454410993       -3.9404096769
 H         -8.0142891706       -2.2440534224       -2.1235700620
 H         -6.9270568434       -0.8487793836       -0.4195385557
 H         -4.8608217877       -2.4793989045        1.3379251001
 H         -5.7692485942       -3.0907350743        3.5364890516
 H         -6.3573243197       -1.3298075373        5.1644202754
 H         -6.0152446436        1.0449682162        4.5807817969
 H         -5.1031040163        1.6541424862        2.3836945274
 H         -2.8700996978        2.6472073839        0.8034450120
 H         -3.3121415500        5.0158409020        0.3247885655
 H         -5.1849523945        5.6502110631       -1.1537046200
 H         -6.6131665571        3.8983835383       -2.1453939259
 H         -6.1708439613        1.5300628876       -1.6639097632
 H         -2.2709535967       -1.5112442341        1.7169656293
 H          0.1550583224       -1.8403456888        1.7199596092
 H          2.4130122059        1.2873403563       -0.3878620696
