  94
 
 N          0.0002797174        3.1068215651        2.4259931771
 C          0.0001941886        2.2466222191        1.6693583815
 C          0.0000764522        1.1504907478        0.7734487528
 C         -1.2262959886        0.5831164831        0.3930918607
 N         -2.4232709711        1.1605673895        0.8112928288
 C         -3.4792140123        0.4657005084        1.3818184456
 C         -3.4846029223       -0.7938960466        1.9574360061
 C         -4.6824208061       -1.2643601596        2.4616022943
 C         -5.8372552718       -0.4892353020        2.4217790057
 C         -5.8178515205        0.7933487687        1.9087490359
 C         -4.6275980728        1.2833558572        1.3913338198
 C         -4.2402592607        2.5401661452        0.8108068100
 C         -4.9286782059        3.7135147532        0.5385511901
 C         -4.2516045188        4.7529894867       -0.0682192807
 C         -2.9097341373        4.6276548330       -0.4138111394
 C         -2.2058493602        3.4663359571       -0.1556800077
 C         -2.8750567660        2.4293658126        0.4717950855
 C         -1.2263672934       -0.5830536435       -0.3929913602
 N         -2.4234154338       -1.1603764529       -0.8111661887
 C         -2.8753406764       -2.4291214596       -0.4716737492
 C         -2.2062812630       -3.4661211842        0.1559114713
 C         -2.9102994396       -4.6273564991        0.4140514783
 C         -4.2521577009       -4.7525765288        0.0683641454
 C         -4.9290816003       -3.7130726315       -0.5385228253
 C         -4.2405264985       -2.5398063364       -0.8107919202
 C         -4.6276924405       -1.2829873706       -1.3914144931
 C         -5.8178448731       -0.7929006857       -1.9089872003
 C         -5.8370853941        0.4896694231       -2.4220580384
 C         -4.6821908766        1.2647116136       -2.4617441688
 C         -3.4844714605        0.7941706522       -1.9574172211
 C         -3.4792427858       -0.4654242615       -1.3817941632
 C         -0.0000787186       -1.1505591074       -0.7734238928
 C         -0.0001888455       -2.2466878962       -1.6693431232
 N         -0.0002592044       -3.1068872105       -2.4260088924
 C          1.2262938770       -0.5831842758       -0.3930675482
 N          2.4232764200       -1.1606124886       -0.8112816051
 C          3.4791923698       -0.4657056187       -1.3818102325
 C          3.4845241239        0.7938846536       -1.9574408787
 C          4.6823196432        1.2643974512       -2.4616137208
 C          5.8371935557        0.4893330223       -2.4217631555
 C          5.8178475099       -0.7932482599       -1.9087232595
 C          4.6276106362       -1.2833115843       -1.3913213302
 C          4.2403203541       -2.5401375568       -0.8107953046
 C          4.9287828676       -3.7134635256       -0.5385528862
 C          4.2517422379       -4.7529769619        0.0681881644
 C          2.9098603591       -4.6277033990        0.4137627389
 C          2.2059359864       -3.4664020785        0.1556583828
 C          2.8751089192       -2.4293965321       -0.4717943795
 C          1.2263641967        0.5829869865        0.3930126749
 N          2.4234096480        1.1603292927        0.8111681962
 C          3.4792426457        0.4654182412        1.3818333022
 C          3.4844995425       -0.7941697597        1.9574704722
 C          4.6822237773       -1.2646654182        2.4618299778
 C          5.8370933783       -0.4895841684        2.4221657071
 C          5.8178228613        0.7929783041        1.9090783667
 C          4.6276685344        1.2830160242        1.3914617469
 C          4.2404802167        2.5398094692        0.8107986628
 C          4.9290094519        3.7130842361        0.5385002739
 C          4.2520764249        4.7525400951       -0.0684586786
 C          2.9102314779        4.6272689627       -0.4141799372
 C          2.2062369136        3.4660287807       -0.1560019239
 C          2.8753077137        2.4290747647        0.4716468098
 H         -2.5870595871       -1.3908146289        2.0207364011
 H         -4.7180974884       -2.2520670163        2.8957627493
 H         -6.7562851400       -0.8933995684        2.8184342023
 H         -6.7059749158        1.4062504560        1.9113523208
 H         -5.9731966950        3.8041644934        0.7940183034
 H         -4.7679223379        5.6759006825       -0.2852525171
 H         -2.4063339774        5.4522167606       -0.8957985491
 H         -1.1687498137        3.3818240421       -0.4437285849
 H         -1.1692056679       -3.3816750498        0.4440670198
 H         -2.4070306212       -5.4519280141        0.8961595661
 H         -4.7685828715       -5.6754240097        0.2854095933
 H         -5.9735788830       -3.8036482209       -0.7940968916
 H         -6.7060209900       -1.4057277419       -1.9116668447
 H         -6.7560418485        0.8939029846       -2.8188155433
 H         -4.7177470577        2.2524216632       -2.8959059626
 H         -2.5868764243        1.3910231408       -2.0206187337
 H          2.5869520017        1.3907576770       -2.0207517050
 H          4.7179591053        2.2521123135       -2.8957569607
 H          6.7562128642        0.8935463748       -2.8183960788
 H          6.7059995849       -1.4061093760       -1.9113205469
 H          5.9732957651       -3.8040825608       -0.7940472361
 H          4.7680873361       -5.6758803557        0.2851861515
 H          2.4064949747       -5.4522858263        0.8957510037
 H          1.1688375522       -3.3819261611        0.4437183342
 H          2.5869266767       -1.3910570015        2.0206452790
 H          4.7177987183       -2.2523620614        2.8960217123
 H          6.7560439053       -0.8937675246        2.8189859987
 H          6.7059746721        1.4058387915        1.9117816559
 H          5.9735001934        3.8036974153        0.7940909326
 H          4.7684848818        5.6753894882       -0.2855381066
 H          2.4069564387        5.4518019804       -0.8963476595
 H          1.1691719673        3.3815387573       -0.4441840637
