  52
 
 O          7.8071099878        0.8318116914        0.1033779310
 C          6.6642585906        0.3502210194        0.0451342621
 C          6.3390412835       -1.0826897901       -0.1911982066
 O          7.1699303840       -1.9930585008       -0.3568688593
 C          4.8789010358       -1.1873960152       -0.1813828584
 C          4.0039133904       -2.2398149265       -0.3210698720
 C          2.6292030203       -1.9686097470       -0.2477221396
 C          2.1002411979       -0.7022727026       -0.0544185698
 C          0.6471686612       -0.5175377029       -0.0441828515
 C          0.0422721405        0.4888834761       -0.8026844760
 C         -1.3249366725        0.6527705948       -0.8013865056
 C         -2.1394632727       -0.1853576538       -0.0311592161
 N         -3.5199092410       -0.0169642686       -0.0205426823
 C         -4.3636921235       -1.1272143231        0.0939419392
 C         -5.5351590384       -1.0459723245        0.8502880649
 C         -6.3675522249       -2.1428108530        0.9567182497
 C         -6.0477379377       -3.3310175763        0.3169624203
 C         -4.8858363283       -3.4159994466       -0.4354872438
 C         -4.0465249302       -2.3253153653       -0.5505627391
 C         -4.0747847881        1.2628398755       -0.1268397056
 C         -5.2459592158        1.4635064750       -0.8612322654
 C         -5.7948629460        2.7271389780       -0.9571942527
 C         -5.1889783703        3.8049725138       -0.3289953223
 C         -4.0254406634        3.6106389711        0.4002727090
 C         -3.4685779536        2.3512011282        0.5052590147
 C         -1.5388115946       -1.1996190380        0.7239218193
 C         -0.1720069074       -1.3638276943        0.7082651743
 C          2.9921270056        0.4014155933        0.1181437222
 C          2.6823414825        1.7516227441        0.4132234149
 C          3.6838082843        2.6799951871        0.5657061369
 C          5.0510108332        2.3596524618        0.4551101263
 C          5.3820158211        1.0528188366        0.1942477207
 C          4.3506884217        0.1030236640        0.0399137139
 H          4.3549195565       -3.2470814749       -0.4864082371
 H          1.9461120989       -2.7955278580       -0.3801529205
 H          0.6535159341        1.1196327240       -1.4297919858
 H         -1.7776840285        1.4171079276       -1.4149653713
 H         -5.7760564373       -0.1260894681        1.3618070472
 H         -7.2671261837       -2.0730777884        1.5496469622
 H         -6.7007570964       -4.1858992689        0.4034916286
 H         -4.6361896902       -4.3355536486       -0.9431968084
 H         -3.1514126174       -2.3861386195       -1.1514362192
 H         -5.7089727872        0.6275338080       -1.3639755875
 H         -6.6966081790        2.8735331130       -1.5325835267
 H         -5.6212783158        4.7907424377       -0.4073581359
 H         -3.5536355308        4.4443903406        0.8982842382
 H         -2.5739522273        2.1970816772        1.0899053030
 H         -2.1530976009       -1.8414213395        1.3373554709
 H          0.2794569132       -2.1350289757        1.3136174944
 H          1.6531223761        2.0510351623        0.5370079059
 H          3.4220508999        3.7041533170        0.7890542982
 H          5.8067598572        3.1193952484        0.5843326793
