  122
 
 C         -8.2050823205        3.7472133668        0.5329659049
 C         -6.9125889679        4.4517193605        0.0813282945
 C         -7.2278565492        5.8685684254       -0.4320289386
 C         -5.9822265454        4.5592522996        1.2733253466
 C         -6.4068411165        5.2353853749        2.4094173031
 C         -5.6226105981        5.3317786946        3.5432381904
 C         -4.3847052839        4.7153157992        3.5609319248
 C         -3.9370771230        4.0415646310        2.4444765912
 C         -4.7102436266        3.9788653191        1.2810375094
 N         -4.2227129752        3.3084411739        0.1656648818
 C         -2.8966013912        2.8165903721        0.1887252486
 C         -1.8212908973        3.7080043936        0.2345699576
 C         -0.5388385875        3.2183499904        0.2450849025
 C         -0.2944086390        1.8418459425        0.1965379692
 C         -1.3692085383        0.9316006720        0.1446320967
 C         -2.6652247117        1.4520127357        0.1545946125
 C         -1.1063200399       -0.4982014335        0.0611169275
 C         -2.1330150673       -1.4420939977       -0.0092590295
 C         -1.8655688134       -2.7949624890       -0.1341957464
 N         -2.9325528469       -3.7176930365       -0.2326306095
 C         -3.7492790304       -3.6978228105       -1.3580938079
 C         -3.5040090910       -2.7808666244       -2.3851413673
 C         -4.3106474061       -2.7280143956       -3.5019792989
 C         -5.3738462201       -3.6032906734       -3.6263583660
 C         -5.5942598840       -4.5383333614       -2.6331277681
 C         -4.7987080447       -4.6121798573       -1.4972737858
 C         -5.0735860697       -5.6949797107       -0.4720435077
 C         -6.5096959569       -5.5267278294        0.0573264917
 C         -4.9128963123       -7.0653808833       -1.1550665680
 C         -4.1174504346       -5.6177991650        0.7017353032
 C         -4.2441239071       -6.5277109855        1.7430166480
 C         -3.4332385586       -6.4825292600        2.8611228089
 C         -2.4811040184       -5.4846597762        2.9630252734
 C         -2.3317624818       -4.5709799909        1.9414214434
 C         -3.1207451290       -4.6410809702        0.7890387701
 C         -0.5434234916       -3.2463855721       -0.1741708240
 C          0.4821809665       -2.3382701285       -0.0865020975
 C          0.2221510429       -0.9683174836        0.0279108389
 C          1.3256984185       -0.0412960283        0.1039973692
 N          2.5590959715       -0.5118731975        0.0891781092
 C          3.5683876584        0.3666242786        0.1627667395
 C          4.8989222202       -0.1001165136        0.1607431569
 C          5.9414720019        0.7841582372        0.2387283353
 N          7.2859341067        0.3598896498        0.2288693817
 C          7.8697681125       -0.0841603824       -0.9556634041
 C          7.0714913817       -0.3847867087       -2.0616500484
 C          7.6291678370       -0.8271639477       -3.2428468480
 C          9.0004469847       -0.9694407841       -3.3451269314
 C          9.7936669808       -0.6500841901       -2.2597028684
 C          9.2590635224       -0.2062709787       -1.0570964659
 C         10.1967278901        0.1752127154        0.0724834193
 C         11.0282777977        1.3898842297       -0.3782585521
 C         11.1134230477       -1.0204356599        0.3885456522
 C          9.4430579308        0.5587705584        1.3291940174
 C         10.1427178308        0.8639997240        2.4887043011
 C          9.5007394274        1.2070430149        3.6636129613
 C          8.1186297050        1.2270092532        3.7004020721
 C          7.4003597275        0.9343937852        2.5606470133
 C          8.0498059508        0.6308654692        1.3609596458
 C          5.6781969010        2.1864512236        0.3281788751
 C          6.7739888127        3.0805919741        0.3682831042
 N          7.6625235956        3.8045602891        0.3731125370
 C          4.3912509925        2.6665637138        0.3367963429
 C          3.3094615306        1.7677366744        0.2564788078
 N          2.0544220367        2.2357982064        0.2667932724
 C          1.0673698843        1.3626935206        0.1913823289
 C         -4.9907627694        3.1461528198       -0.9820346113
 C         -4.4543560693        2.4954806061       -2.0976034921
 C         -5.2018988217        2.3054101833       -3.2403826301
 C         -6.5005575445        2.7762460192       -3.3007952083
 C         -7.0206151908        3.4547582418       -2.2151351292
 C         -6.2908182256        3.6580388921       -1.0513266066
 H         -8.6891833186        4.2986004041        1.3339988224
 H         -7.9737015909        2.7473864026        0.8957347248
 H         -8.9082966549        3.6589066146       -0.2903184284
 H         -7.9103251050        5.8328008002       -1.2766565461
 H         -6.3103707882        6.3584505323       -0.7530710564
 H         -7.6832334318        6.4713564186        0.3488446831
 H         -7.3802024727        5.7019899888        2.4155351148
 H         -5.9812767392        5.8698957349        4.4072128424
 H         -3.7653061178        4.7535317478        4.4445129514
 H         -2.9770250544        3.5500234534        2.4766751368
 H         -2.0125080448        4.7701540366        0.2597820536
 H          0.3116750354        3.8804953128        0.2775422561
 H         -3.5241348105        0.8006195695        0.1261598409
 H         -3.1673192202       -1.1388984850        0.0238221269
 H         -2.6649173182       -2.1065038328       -2.3147536593
 H         -4.1018203783       -2.0045048633       -4.2757255332
 H         -6.0159276858       -3.5697237880       -4.4930593766
 H         -6.4113502850       -5.2333517709       -2.7531001006
 H         -6.6142400492       -4.5571457554        0.5408532321
 H         -7.2320294278       -5.5857719227       -0.7519228710
 H         -6.7497621341       -6.2987723520        0.7828475900
 H         -5.1096433603       -7.8728482862       -0.4552753172
 H         -3.8967427072       -7.1752605114       -1.5294883184
 H         -5.5986541495       -7.1653083964       -1.9917978788
 H         -4.9994220776       -7.2967221771        1.6856048247
 H         -3.5547315145       -7.2092705929        3.6496200310
 H         -1.8545653168       -5.4114917110        3.8393347848
 H         -1.5979364364       -3.7863215834        2.0416120494
 H         -0.3454084934       -4.3028250709       -0.2747436790
 H          1.5127008866       -2.6545070664       -0.1160709716
 H          5.0744848363       -1.1633640781        0.1045421775
 H          6.0011698782       -0.2625125840       -2.0038817636
 H          6.9888387545       -1.0548044103       -4.0818968981
 H          9.4503412227       -1.3136299617       -4.2637295490
 H         10.8642180522       -0.7409803991       -2.3612948208
 H         10.3712635093        2.2387882490       -0.5581048912
 H         11.7458377211        1.6693695720        0.3884545861
 H         11.5697455489        1.1709221739       -1.2948200607
 H         11.7014275606       -1.3026436360       -0.4797865087
 H         11.8008984974       -0.7820451584        1.1946803329
 H         10.5132393546       -1.8766855816        0.6909773931
 H         11.2216721375        0.8430212187        2.4784677701
 H         10.0756130188        1.4467377789        4.5449083805
 H          7.5964746743        1.4675406695        4.6142633556
 H          6.3208449191        0.9330857283        2.6022527906
 H          4.1877936029        3.7248801196        0.3948207726
 H         -3.4352862937        2.1422274461       -2.0754247744
 H         -4.7638948684        1.7932588379       -4.0839781639
 H         -7.0981304845        2.6307103913       -4.1875386605
 H         -8.0265348510        3.8402117679       -2.2832289675
