  69
 
 N        -10.4948138817       -2.8263310409        0.2296237189
 C         -9.4639299518       -2.3233568920        0.1860947255
 C         -8.1978478357       -1.7058946462        0.1322641585
 C         -7.7202717031       -1.1840520385       -1.0742799521
 C         -6.4800950343       -0.5902446914       -1.1239685245
 C         -5.6840615443       -0.4799948008        0.0251414126
 C         -4.3769683027        0.1581973748       -0.0317916374
 C         -4.0686494797        1.2361432734        0.8600182738
 C         -5.0195205069        1.7626632093        1.7361503488
 C         -4.6909198525        2.7577928587        2.6557208031
 C         -3.4013979294        3.2378286175        2.7133483407
 C         -2.4491743713        2.7757949764        1.8070166393
 C         -2.7679350735        1.8210377794        0.8381805642
 C         -1.8223544265        1.4134098736       -0.1529200508
 C         -0.5129660665        2.0628529262       -0.2196295568
 C         -0.4072867986        3.4481543502       -0.3796585497
 C          0.8321734804        4.0589578837       -0.4503772453
 C          1.9897959694        3.3104898055       -0.3578597698
 C          1.9023214196        1.9261482205       -0.1959539501
 C          3.1123890897        1.1417140177       -0.1010582531
 N          4.3277455047        1.6077123386       -0.1217630409
 C          5.1326382215        0.5107360391       -0.0125729941
 C          6.5516924357        0.4081698912        0.0207250243
 C          7.3679654142        1.5401946091       -0.0615649571
 C          8.7344530203        1.4129645155       -0.0261345655
 C          9.3009817160        0.1455639621        0.0926683274
 C          8.5077753331       -0.9751383236        0.1742250352
 C          7.1074155396       -0.8891999606        0.1414863186
 C          6.2512459800       -2.0605943906        0.2255386011
 C          6.7579561502       -3.3630692931        0.3431441057
 C          5.9286546228       -4.4580301473        0.4203327499
 C          4.5437163018       -4.3083080636        0.3837547372
 C          4.0040678398       -3.0519458486        0.2696614749
 C          4.8385726251       -1.9299498421        0.1905753619
 C          4.3293465605       -0.6151368039        0.0712987919
 O          3.0396748083       -0.2109570789        0.0150254963
 C          0.6566385087        1.3106497356       -0.1302512031
 C         -2.1478301671        0.3750912732       -1.0797394887
 C         -1.2711904124       -0.0001133535       -2.1009418932
 C         -1.5517662735       -1.0750948673       -2.9419619629
 C         -2.7120767062       -1.7961746187       -2.7677257790
 C         -3.6311558853       -1.4051637724       -1.7950276927
 C         -3.4031550907       -0.2948301587       -0.9800057076
 C         -6.1797065791       -1.0003374497        1.2291788735
 C         -7.4111594832       -1.6116736138        1.2847753083
 H         -8.3338560513       -1.2481036125       -1.9611009345
 H         -6.1235350687       -0.1676670475       -2.0520474871
 H         -6.0357216621        1.4011239415        1.7015409213
 H         -5.4495348078        3.1353324060        3.3244543672
 H         -3.1235788582        3.9817528293        3.4446423361
 H         -1.4433178947        3.1631891679        1.8595313787
 H         -1.3082157440        4.0366013713       -0.4753637418
 H          0.8927189128        5.1290336774       -0.5829636692
 H          2.9649465234        3.7663346993       -0.4090381804
 H          6.8902147497        2.5033590873       -0.1523063620
 H          9.3687441061        2.2845015545       -0.0892629068
 H         10.3758662284        0.0410229071        0.1212155642
 H          8.9893742364       -1.9356038842        0.2654518420
 H          7.8230479193       -3.5268364637        0.3749911801
 H          6.3561048322       -5.4458923419        0.5102036185
 H          3.9036407499       -5.1756547210        0.4448519148
 H          2.9348654999       -2.9031435510        0.2384629212
 H          0.5969212562        0.2427066218        0.0187252631
 H         -0.3569287166        0.5542355439       -2.2467524855
 H         -0.8478902994       -1.3438857247       -3.7151200481
 H         -2.9246918587       -2.6554426763       -3.3855925701
 H         -4.5336817415       -1.9833533879       -1.6693887593
 H         -5.5642989990       -0.9503413455        2.1156389203
 H         -7.7767605562       -2.0256032417        2.2132381802
