121

C     12.566341    0.616097    1.475412
C     12.008449    0.528586    0.078803
C     12.346599    1.820823   -0.658279
C     12.653551   -0.593924   -0.687467
C     10.533006    0.337259    0.108263
C      9.880806    0.245987   -1.087832
C      8.530219    0.072599   -1.111326
C      7.739567   -0.021355    0.028154
N      6.329925   -0.176993   -0.021792
C      5.714606   -1.277099    0.633690
C      6.422155   -2.238812    1.317901
C      5.835475   -3.310986    1.957095
C      4.463682   -3.445226    1.920068
C      3.753329   -2.482641    1.234770
C      4.344483   -1.414360    0.598618
C      3.440848   -0.464863   -0.100591
C      4.183641    0.651337   -0.752722
C      3.388920    1.585522   -1.421113
C      3.930042    2.673088   -2.066308
C      5.299295    2.811694   -2.030541
C      6.086622    1.879735   -1.364138
C      5.549736    0.785751   -0.714907
C      2.613146    0.160919    0.952135
C      3.328907    0.794745    1.980739
C      2.714532    1.424228    3.025771
C      1.343159    1.429238    3.058920
C      0.636391    0.809311    2.053398
C      1.242572    0.165333    0.983934
N      0.526539   -0.480210   -0.031729
C     -0.894116   -0.449826   -0.029911
C     -1.470662    0.827696   -0.022472
C     -2.848389    0.952477   -0.009241
C     -3.573484   -0.210306   -0.004713
C     -3.067624   -1.479736   -0.011610
C     -1.677756   -1.592937   -0.024295
O     -3.920478   -2.548297   -0.006640
C     -5.303665   -2.531819    0.004789
C     -5.947514   -3.749043    0.006230
C     -7.324362   -3.707092    0.016346
C     -8.066835   -2.561247    0.024954
C     -9.558809   -2.556124    0.029960
C    -10.046628   -4.000410   -0.019416
C    -10.082915   -1.813064   -1.152742
C    -10.107283   -1.989520    1.325288
C     -7.348426   -1.356953    0.023270
C     -6.001532   -1.317731    0.013518
B     -5.135738   -0.063737    0.009021
C     -5.773292    1.339806    0.018104
C     -7.086047    1.608684    0.031585
C     -7.568090    2.924016    0.040360
C     -9.024323    3.210563    0.056636
C     -9.809442    1.940668    0.044307
C     -9.381805    4.082538    1.241451
C     -9.361614    4.020222   -1.190206
C     -6.632774    3.918116    0.034249
C     -5.270528    3.714477    0.020450
C     -4.855258    2.398524    0.012489
O     -3.493024    2.169183   -0.000626
C      1.207808   -1.136068   -1.083607
C      0.553112   -1.793305   -2.107977
C      1.205539   -2.441918   -3.134471
C      2.581752   -2.436219   -3.142890
C      3.250843   -1.787507   -2.133563
C      2.579315   -1.128470   -1.090568
C      8.437664    0.075732    1.235101
C      9.805731    0.251287    1.275718
H     12.039021    1.397492    2.045612
H     12.467335   -0.380269    1.944894
H     13.634793    0.926273    1.375477
H     11.780262    2.686354   -0.240237
H     13.429310    1.994829   -0.520180
H     12.128406    1.738570   -1.750099
H     13.450548   -0.235355   -1.375636
H     11.871707   -1.038491   -1.356954
H     13.045079   -1.392288   -0.042990
H     10.441379    0.311732   -2.014660
H      8.065612   -0.000642   -2.106117
H      7.500604   -2.180965    1.372261
H      6.422268   -4.064467    2.496616
H      3.968807   -4.281995    2.415489
H      2.674295   -2.606187    1.216520
H      2.293400    1.474927   -1.449861
H      3.310826    3.389570   -2.579955
H      5.728917    3.655155   -2.530033
H      7.134130    2.046352   -1.366512
H      4.411883    0.800375    1.969561
H      3.297166    1.901142    3.797827
H      0.873813    1.932338    3.893699
H     -0.441375    0.839067    2.140083
H     -0.883882    1.726938   -0.029015
H     -1.234489   -2.561111   -0.022880
H     -5.425149   -4.688692   -0.000265
H     -7.854110   -4.644705    0.017577
H     -9.662460   -4.541178   -0.909949
H    -11.156181   -4.042482   -0.000162
H     -9.700611   -4.563853    0.872709
H     -9.233415   -1.266927   -1.638932
H    -10.927671   -1.130377   -0.913820
H    -10.473588   -2.517701   -1.910498
H     -9.504148   -2.361570    2.180906
H    -10.259724   -0.907283    1.300616
H    -11.135526   -2.438779    1.452821
H     -7.944136   -0.509353    0.028946
H     -7.822440    0.883104    0.036613
H     -9.554831    1.412557   -0.895006
H    -10.903602    2.193931    0.082296
H     -9.582088    1.356065    0.937652
H     -8.884031    3.793978    2.171770
H     -9.150176    5.132505    1.013808
H    -10.483844    4.035835    1.407194
H     -8.496547    4.665441   -1.459246
H    -10.194725    4.713022   -0.949518
H     -9.695084    3.403688   -2.030038
H     -6.988863    4.935327    0.040838
H     -4.540156    4.512336    0.015670
H     -0.532708   -1.817910   -2.151204
H      0.637388   -2.944018   -3.915663
H      3.102063   -2.944585   -3.947743
H      4.334254   -1.806943   -2.177839
H      7.913264    0.018525    2.178918
H     10.313138    0.322257    2.220836
