  69
 
 C         -6.5888710164       -4.3217618351        0.9519799742
 C         -5.6070944270       -3.2242411935        0.7015273827
 C         -5.6689162009       -2.4569544692       -0.4578263125
 C         -4.7555247657       -1.4496854338       -0.7082148802
 C         -4.8361950916       -0.6822149958       -1.9883726028
 C         -3.7558225411       -1.1421794151        0.2454679680
 B         -2.8031993226        0.0832624225        0.0284311264
 C         -1.2833918443       -0.1653423243        0.0048784622
 C         -0.7491973167       -1.4542566792       -0.2235812198
 C          0.5989458740       -1.6780035933       -0.2501764283
 C          1.5139954097       -0.6252518052       -0.0312639826
 C          2.9117489212       -0.8554261577       -0.0458231913
 N          3.3765864778       -2.1307563797       -0.2793733965
 C          4.6662105614       -2.2353310435       -0.2760724778
 Cl         5.2862273028       -3.8303870575       -0.5739310985
 N          5.5828676937       -1.3172952977       -0.0817936386
 C          5.0544314775       -0.0783271976        0.1470006356
 C          5.9848324911        1.0144599027        0.3802013248
 C          7.3619904509        0.7833183679        0.3656517792
 C          8.2429555140        1.8228684592        0.5904556656
 C          7.7653166966        3.1022510385        0.8330329298
 C          6.3981735633        3.3396851272        0.8484995311
 C          5.5114117052        2.3062127176        0.6243483536
 N          3.7665618062        0.1571581356        0.1654687779
 C          0.9896027617        0.6647919252        0.2039863174
 C         -0.3590300624        0.8844143226        0.2119619543
 C         -3.3206454426        1.5502361303       -0.1649156895
 C         -3.0216807254        2.2877751026       -1.3317869278
 C         -2.1183822176        1.7479802044       -2.3990613259
 C         -3.5887778551        3.5359349011       -1.5256277694
 C         -4.4197202010        4.1183836861       -0.5740581811
 C         -5.0067696977        5.4748943270       -0.7899734304
 C         -4.6900152885        3.4037289385        0.5901452731
 C         -4.1412337715        2.1557833180        0.8169825126
 C         -4.4269548674        1.4464056822        2.1014216116
 C         -3.6737429413       -1.9415716060        1.4074635724
 C         -2.6122244160       -1.7241581579        2.4430484873
 C         -4.6047039182       -2.9420726751        1.6254271467
 H         -6.1270899513       -5.1408430606        1.4991121201
 H         -7.4143290654       -3.9414893338        1.5563105874
 H         -7.0010813386       -4.7001648430        0.0196285165
 H         -6.4391546749       -2.6655925187       -1.1869917886
 H         -5.6997110921       -0.9892919845       -2.5729795622
 H         -4.9063332081        0.3853133850       -1.7847169640
 H         -3.9382525157       -0.8435669847       -2.5832813548
 H         -1.4239827221       -2.2789068521       -0.4018858362
 H          0.9960431081       -2.6646578245       -0.4393975842
 H          7.7149051804       -0.2188377175        0.1757792441
 H          9.3068312283        1.6360690235        0.5776839675
 H          8.4567842450        3.9128616573        1.0091039621
 H          6.0254926886        4.3357880400        1.0373298425
 H          4.4453812860        2.4733914827        0.6334262372
 H          1.6847518627        1.4729237159        0.3776827789
 H         -0.7297886481        1.8809007026        0.4031739789
 H         -2.0558389129        0.6651456656       -2.3584384771
 H         -1.1094115939        2.1388863830       -2.2638950083
 H         -2.4653536803        2.0556099923       -3.3836455809
 H         -3.3691771647        4.0755648383       -2.4362730414
 H         -4.4220775958        6.0461565426       -1.5069847134
 H         -5.0660533367        6.0268315981        0.1458265950
 H         -6.0205469755        5.3759381012       -1.1817478211
 H         -5.3318018418        3.8441056258        1.3402349870
 H         -4.8449176964        0.4606243662        1.9027604082
 H         -5.1270957446        2.0118823031        2.7111309717
 H         -3.5079447635        1.3038695362        2.6681984859
 H         -3.0084464279       -1.9075344668        3.4399766973
 H         -1.7876710894       -2.4187435244        2.2790620995
 H         -2.2058999381       -0.7189883634        2.3929392093
 H         -4.5432199012       -3.5283979193        2.5316724612
