114

C     11.322145    3.322189    1.930238
C     10.962177    2.883584    0.493523
C     10.993654    4.114755   -0.436876
C     12.076664    1.922504    0.020177
C      9.554023    2.262126    0.472238
C      8.450426    2.997503    0.928170
C      7.149182    2.477887    0.930219
C      6.933644    1.180599    0.430447
C      8.007625    0.403460   -0.001236
C      9.312500    0.955289    0.012746
C      7.497853   -0.872652   -0.379678
C      8.106989   -2.045562   -0.884927
C      7.350659   -3.184746   -1.230323
C      8.058702   -4.437779   -1.775177
C      8.846482   -4.078959   -3.053924
C      7.097002   -5.590640   -2.140324
C      9.038026   -4.979055   -0.711207
C      5.963656   -3.108153   -1.066189
C      5.332510   -1.961694   -0.560553
C      6.117852   -0.855080   -0.188512
N      5.779580    0.399436    0.323385
C      4.462597    0.813870    0.689402
C      4.005974    2.091166    0.349212
C      2.722551    2.498712    0.727412
C      1.883397    1.638404    1.450112
C      0.533843    2.134241    1.829895
O      0.160407    3.260183    1.515154
C     -0.428321    1.249503    2.595062
O     -0.060871    0.764876    3.660195
C     -1.791343    0.994295    2.055793
C     -2.711598    0.309416    2.862625
C     -4.015295    0.075437    2.412986
C     -4.409751    0.528444    1.149045
N     -5.753746    0.341658    0.703518
C     -6.503007   -0.827710    0.846928
C     -6.175667   -2.098527    1.354397
C     -7.152165   -3.106627    1.352711
C     -8.439872   -2.897384    0.847363
C     -9.524949   -3.988508    0.847540
C    -10.004189   -4.252139   -0.596624
C    -10.723327   -3.521600    1.701122
C     -9.053008   -5.341684    1.425363
C     -8.725633   -1.624279    0.311979
C     -7.759892   -0.590707    0.292726
C     -7.771703    0.742032   -0.212765
C     -8.755292    1.514682   -0.878078
C     -8.515939    2.851028   -1.246589
C     -9.560846    3.706864   -1.983992
C    -10.862986    2.947692   -2.324476
C     -9.951504    4.917112   -1.109321
C     -8.970216    4.213186   -3.318580
C     -7.271763    3.399285   -0.904636
C     -6.279159    2.659546   -0.248806
C     -6.529300    1.310545    0.061274
C     -3.486101    1.190673    0.330904
C     -2.181706    1.420587    0.781239
C      2.339525    0.357324    1.780211
C      3.623740   -0.053281    1.401350
H     12.342684    3.718852    1.976200
H     10.658660    4.108832    2.304251
H     11.261070    2.477969    2.627202
H     11.993050    4.562435   -0.466956
H     10.719185    3.840963   -1.463167
H     10.300925    4.897833   -0.110800
H     13.059009    2.408334    0.057118
H     11.919270    1.598281   -1.015158
H     12.133816    1.030061    0.653802
H      8.585394    4.009306    1.307700
H      6.340051    3.079572    1.331471
H     10.121802    0.323937   -0.339658
H      9.186680   -2.044011   -1.010166
H      9.646610   -3.357171   -2.858920
H      8.188409   -3.643817   -3.815083
H      9.318658   -4.967280   -3.489735
H      6.523836   -5.929845   -1.270577
H      7.648136   -6.459823   -2.520278
H      6.387283   -5.292014   -2.921186
H      9.825579   -4.256488   -0.469250
H      8.514953   -5.218087    0.222143
H      9.534420   -5.892092   -1.059489
H      5.319199   -3.942000   -1.334013
H      4.249688   -1.944946   -0.483155
H      4.614886    2.771772   -0.241272
H      2.382134    3.496072    0.450798
H     -2.426727   -0.024912    3.859714
H     -4.720035   -0.407830    3.086407
H     -5.181678   -2.325217    1.728630
H     -6.858855   -4.071143    1.760588
H     -9.168503   -4.544182   -1.242778
H    -10.475518   -3.370430   -1.044437
H    -10.744595   -5.059454   -0.626326
H    -11.183863   -2.609657    1.306926
H    -11.506345   -4.288328    1.734758
H    -10.415137   -3.314624    2.732844
H     -9.859755   -6.084350    1.402538
H     -8.217926   -5.756711    0.848914
H     -8.734125   -5.245901    2.469922
H     -9.706333   -1.411898   -0.106420
H     -9.705070    1.034379   -1.088169
H    -11.567453    3.594462   -2.860419
H    -11.374363    2.596868   -1.420504
H    -10.668326    2.080665   -2.966413
H    -10.355690    4.592062   -0.143943
H    -10.714333    5.530559   -1.602783
H     -9.097758    5.571804   -0.903283
H     -9.709271    4.791978   -3.884250
H     -8.648043    3.376295   -3.949614
H     -8.102577    4.864623   -3.168699
H     -7.046102    4.437752   -1.141742
H     -5.346180    3.145915    0.017929
H     -3.754576    1.514078   -0.673205
H     -1.497287    1.945958    0.118808
H      1.728937   -0.336769    2.352590
H      3.967864   -1.035967    1.716725
