  56
 
 C         -9.8699644282        1.1969581661       -0.1181042318
 C         -9.0248853815        2.2536658333       -0.4944526448
 C         -7.6727525227        2.0662557432       -0.5625328082
 C         -7.1021006801        0.8115892078       -0.2572401331
 C         -5.7134795202        0.5867081453       -0.3215449950
 C         -5.1715324015       -0.6437689795       -0.0321643703
 C         -3.7209305593       -0.8682308261       -0.1178164198
 C         -3.2260374641       -2.0568019752       -0.7175978873
 C         -1.8901980216       -2.2810504765       -0.8295833652
 C         -0.9447945010       -1.3404142420       -0.3444151289
 C          0.4276264476       -1.5419768126       -0.4513051926
 C          1.3413810115       -0.6046955752        0.0273589696
 C          2.7397399591       -0.7970191864       -0.0790653282
 C          3.6300669008        0.1348807678        0.3846999823
 C          5.0810191206       -0.0693425124        0.2623687816
 C          5.6418038481       -1.3363979937        0.5391952034
 C          6.9869622687       -1.5443277598        0.4430802202
 C          7.8568572740       -0.5029345378        0.0542865808
 C          9.2509344980       -0.6844582160       -0.0540042030
 C         10.0620885429        0.3481225960       -0.4354970184
 C          9.5153903855        1.6083247204       -0.7274271053
 C          8.1678812532        1.8160689857       -0.6306381543
 C          7.3034993238        0.7721781835       -0.2356010347
 C          5.9124197221        0.9583085621       -0.1172796678
 C          3.1348154655        1.3180681882        0.9950630660
 C          1.7993228536        1.5335125156        1.1250015991
 C          0.8538563039        0.5898805607        0.6454706009
 C         -0.5184551410        0.7901623414        0.7549094011
 C         -1.4322942553       -0.1442673867        0.2706921477
 C         -2.8304977751        0.0555321092        0.3618406092
 C         -6.0323199759       -1.6994591648        0.3429938652
 C         -7.3814391266       -1.5095267780        0.4219988589
 C         -7.9576826174       -0.2566381166        0.1213943993
 C         -9.3480244164       -0.0302112839        0.1840337357
 H        -10.9365982648        1.3635293481       -0.0697910139
 H         -9.4546068433        3.2167688376       -0.7303717345
 H         -7.0186617388        2.8770293336       -0.8519681059
 H         -5.0714310053        1.4008195570       -0.6279680296
 H         -3.9333420729       -2.7741704430       -1.1082773698
 H         -1.5223361935       -3.1836527912       -1.2975231266
 H          0.7942588815       -2.4463192358       -0.9180097713
 H          3.0957378441       -1.6964514678       -0.5619554351
 H          4.9884561811       -2.1377207508        0.8531875190
 H          7.4076827181       -2.5146657491        0.6678265362
 H          9.6667346606       -1.6570486603        0.1699827345
 H         11.1297454907        0.2022166780       -0.5167345181
 H         10.1708491105        2.4126015696       -1.0298465413
 H          7.7433059419        2.7849368314       -0.8542328728
 H          5.5009772051        1.9300146174       -0.3531158354
 H          3.8436970297        2.0384841538        1.3770741392
 H          1.4314933181        2.4325879449        1.5996781036
 H         -0.8852022593        1.6941122699        1.2222524418
 H         -3.1886568889        0.9570175749        0.8392059978
 H         -5.6045876350       -2.6605414254        0.5901246874
 H         -8.0311686776       -2.3215045987        0.7181626801
 H         -9.9946201927       -0.8467393974        0.4741821827
