58

C      7.770867    1.581634    0.448764
C      7.356539    0.278074    0.704664
C      6.000821   -0.057908    0.618497
C      5.028732    0.899019    0.270754
C      3.592003    0.563100    0.168825
C      3.133296   -0.686972   -0.225437
C      1.755951   -0.935312   -0.297161
C      1.305268   -2.270722   -0.714628
C      1.138050   -2.577266   -2.073623
C      0.708833   -3.845655   -2.469712
C      0.443829   -4.822738   -1.512169
C      0.607869   -4.533952   -0.158868
C      1.037228   -3.265840    0.237850
C      0.854734    0.105659    0.031999
C     -0.554824   -0.028313   -0.005960
C     -1.399053    1.037085    0.329512
N     -2.814898    0.879750    0.286258
C     -3.538021    0.350063    1.404775
C     -2.914931   -0.034571    2.605046
C     -3.659940   -0.546457    3.672853
C     -5.040906   -0.681922    3.561423
C     -5.678283   -0.304178    2.382447
C     -4.932475    0.207565    1.315678
O     -5.653851    0.556230    0.196847
C     -4.960827    1.063028   -0.878618
C     -5.734505    1.398829   -1.994312
C     -5.125950    1.915113   -3.135367
C     -3.745594    2.093551   -3.160099
C     -2.972731    1.757475   -2.043386
C     -3.567200    1.237992   -0.879990
C     -0.830208    2.252598    0.706477
C      0.559198    2.390167    0.743657
C      1.409980    1.343872    0.414422
N      2.731574    1.563856    0.476279
C      5.477261    2.211304    0.027692
C      6.831077    2.550420    0.112352
H      8.823152    1.843841    0.517811
H      8.086353   -0.479534    0.978490
H      5.713439   -1.081479    0.847706
H      3.832450   -1.473110   -0.495099
H      1.337687   -1.822965   -2.832149
H      0.579312   -4.069446   -3.525467
H      0.107505   -5.809272   -1.820774
H      0.399470   -5.294915    0.588754
H      1.158030   -3.053395    1.298209
H     -1.011965   -0.971093   -0.301603
H     -1.839841    0.059072    2.731304
H     -3.157153   -0.837470    4.591882
H     -5.619820   -1.079029    4.391012
H     -6.756128   -0.405612    2.290250
H     -6.811216    1.255205   -1.969798
H     -5.726371    2.175959   -4.002845
H     -3.264700    2.494403   -4.049020
H     -1.898319    1.908209   -2.102180
H     -1.465761    3.093280    0.972898
H      0.990834    3.343650    1.040343
H      4.758780    2.986786   -0.234986
H      7.145355    3.572335   -0.082478
