  84
 
 C         -1.1091974787        1.9998501358       -1.7089027616
 C         -1.6056877141        0.7990950959       -0.9611322561
 C         -2.9614723125        0.5354846527       -0.9551515737
 C         -3.4928233980       -0.5920676608       -0.3194333220
 N         -4.8635468636       -0.7878477410       -0.2852357491
 C         -5.4130823663       -2.0709038785       -0.2636730907
 C         -6.5993327523       -2.3024931475        0.4384235951
 C         -7.1620396126       -3.5627085318        0.4549954641
 C         -6.5577195049       -4.6104069494       -0.2241993485
 C         -5.3843735654       -4.3848725368       -0.9284050746
 C         -4.8143796092       -3.1275317178       -0.9552640986
 C         -5.7377233649        0.3053028663       -0.3701273436
 C         -6.7808403253        0.2474661831       -1.3075638052
 C         -7.6398627274        1.3130316771       -1.4738525826
 C         -7.4881101054        2.4595514432       -0.7060523839
 C         -6.4757926966        2.5468843338        0.2698915210
 C         -6.3377251088        3.6910473191        1.0785378808
 C         -5.3758030849        3.7531639110        2.0695173347
 C         -4.5413677697        2.6680846022        2.2911992536
 C         -4.6433888734        1.5312082929        1.5045499396
 C         -5.5850327126        1.4504256795        0.4670441578
 C         -2.6102700429       -1.4936138505        0.2913499924
 C         -1.2583752752       -1.2482347362        0.2683378148
 C         -0.7303246994       -0.0936894293       -0.3207434946
 C          0.7227781621        0.1078904258       -0.2739225424
 C          1.5483823425       -0.8661127764       -0.8466792876
 C          2.9153735004       -0.7346769590       -0.8658642043
 C          3.5169394318        0.3830319133       -0.2709501823
 N          4.8944314460        0.5212457388       -0.2704296527
 C          5.4991420503        1.7796733084       -0.2718237825
 C          4.9285447864        2.8581423017       -0.9531376336
 C          5.5525541569        4.0898655819       -0.9491145054
 C          6.7524419239        4.2682798749       -0.2771398643
 C          7.3290016850        3.1985470270        0.3913262067
 C          6.7124171800        1.9634486719        0.3967105082
 C          5.7242585328       -0.6091056167       -0.3684212348
 C          6.7158138099       -0.6174175538       -1.3541923335
 C          7.5374779351       -1.7162790821       -1.5218733292
 C          7.3932162243       -2.8249180131       -0.7056284395
 C          6.4280522978       -2.8452312513        0.3210020756
 C          6.2982557986       -3.9529972676        1.1809787270
 C          5.3835467399       -3.9492799824        2.2140307582
 C          4.5824690410       -2.8342829941        2.4262039404
 C          4.6758183349       -1.7348729977        1.5925874138
 C          5.5769070544       -1.7180269847        0.5147547841
 C          2.6964971115        1.3278296128        0.3542069781
 C          1.3191476553        1.2115607919        0.3578413860
 C          0.5125671679        2.2364065732        1.0984108416
 H         -1.3604115789        2.9107216517       -1.1667338219
 H         -0.0330118772        1.9592029640       -1.8496076972
 H         -1.5910256735        2.0551329048       -2.6836544533
 H         -3.6347826370        1.2067894107       -1.4685235653
 H         -7.0612258925       -1.4869485230        0.9753624158
 H         -8.0749490734       -3.7309220850        1.0069956994
 H         -7.0001858712       -5.5948220060       -0.2075515091
 H         -4.9152994247       -5.1930859672       -1.4701100759
 H         -3.9145300735       -2.9485634625       -1.5250650604
 H         -6.8763911885       -0.6344300043       -1.9246765622
 H         -8.4244691518        1.2596796864       -2.2146336353
 H         -8.1554073442        3.2979589821       -0.8422787708
 H         -7.0101384114        4.5220852796        0.9183394139
 H         -5.2834662182        4.6418856545        2.6779302533
 H         -3.8033606588        2.7045431015        3.0800612905
 H         -3.9917342841        0.6946726405        1.7067194049
 H         -2.9980840026       -2.3610262617        0.8042950451
 H         -0.5832022699       -1.9382158201        0.7536347518
 H          1.0900183502       -1.7215332502       -1.3213047894
 H          3.5326258058       -1.4772550996       -1.3483350606
 H          4.0067037469        2.7160222925       -1.4973961604
 H          5.1044158708        4.9147190836       -1.4833834148
 H          7.2371051906        5.2328105869       -0.2777063501
 H          8.2629916500        3.3293221337        0.9176805511
 H          7.1543272853        1.1312796469        0.9248401292
 H          6.8105550869        0.2397911857       -2.0054535854
 H          8.2848552663       -1.7118369327       -2.3019685290
 H          8.0292907954       -3.6876528296       -0.8399283742
 H          6.9404615215       -4.8081392446        1.0231788403
 H          5.2970937661       -4.8090484327        2.8635261746
 H          3.8787243755       -2.8230839478        3.2464519517
 H          4.0496175777       -0.8764836953        1.7830768236
 H          3.1548747502        2.1565587417        0.8751245851
 H          0.9515419169        2.4160638310        2.0786183822
 H          0.5131260977        3.1831093265        0.5595502065
 H         -0.5152399001        1.9109898746        1.2288740574
