  62
 
 C          2.1801782434       -4.5019487278        1.8522445708
 C          1.0852883965       -4.6152274346        1.0469449462
 B          0.4706353774       -3.3481879553        0.4485324769
 C          1.2257321646       -2.0219639719        0.7212219334
 C          0.7066753791       -0.8000261970        0.2145319341
 C         -0.6242020066       -0.7622004931       -0.2274931619
 C         -1.3495310917        0.4620930917       -0.0758030975
 C         -2.7299022670        0.4925421628       -0.0012418038
 C         -3.4697753965        1.6502842551        0.2760153972
 C         -4.9158409191        1.6481004376        0.3130912120
 C         -5.6546111448        0.7086498394       -0.4220083058
 C         -7.0330014849        0.7103113343       -0.3984358415
 C         -7.7230424708        1.6455185806        0.3578348302
 C         -7.0107359194        2.5810601782        1.0923246052
 C         -5.6319647320        2.5856158386        1.0712286413
 C         -2.6954590852        2.8090427773        0.5605238310
 C         -1.3462923401        2.7740092557        0.5213587479
 N         -0.6318053550        1.6421551080        0.1820326722
 C          0.7454592693        1.6657313106        0.0664454220
 C          1.4614611865        2.8514816885       -0.1223089263
 C          2.8375593435        2.8358406303       -0.2315570807
 C          3.5487302424        1.6398978301       -0.1960655885
 C          5.0077596376        1.6166864239       -0.3342097542
 C          5.6598994584        2.4979831024       -1.1963007070
 C          7.0355877348        2.4743049713       -1.3222624483
 C          7.7884409007        1.5728278910       -0.5880524562
 C          7.1530794701        0.6919277222        0.2714716899
 C          5.7772685038        0.7110816017        0.3961303395
 C          2.8303401894        0.4534361860       -0.0362644745
 C          1.4522517884        0.4463089096        0.1340784405
 C         -1.2603766983       -1.9505861313       -0.7767003173
 C         -2.2384785629       -1.8246256121       -1.7679928744
 C         -2.8367919846       -2.9401729430       -2.3240273191
 C         -2.4567978761       -4.2085321598       -1.9140129630
 C         -1.4325890198       -4.3451914622       -0.9957704412
 C         -0.7984237227       -3.2394370756       -0.4256976617
 C          2.3027583845       -2.0556752889        1.6153019393
 C          2.7586610948       -3.2460898459        2.1444516204
 H          2.6328815486       -5.3742708909        2.3089543445
 H          0.6785984254       -5.6081366655        0.8984618671
 H         -3.2513568585       -0.4461097386       -0.0857645954
 H         -5.1401076699       -0.0130101356       -1.0390324214
 H         -7.5782879099       -0.0201405648       -0.9792078065
 H         -8.8025962126        1.6452376140        0.3745892684
 H         -7.5383433552        3.3103638129        1.6906805578
 H         -5.1007625120        3.3072175369        1.6738392669
 H         -3.1785763092        3.7366754684        0.8200014813
 H         -0.7617171053        3.6359123674        0.7926601262
 H          0.9499710295        3.7963335401       -0.2134426655
 H          3.3644458481        3.7712142705       -0.3464368710
 H          5.0802826487        3.1906335310       -1.7890895945
 H          7.5241776924        3.1603526781       -1.9992055165
 H          8.8638366387        1.5563577959       -0.6859618978
 H          7.7344317336       -0.0119769037        0.8494906097
 H          5.2933872448        0.0316184198        1.0825035822
 H          3.3529293484       -0.4880459466       -0.0967648594
 H         -2.4999002888       -0.8455671729       -2.1436989249
 H         -3.5966787812       -2.8182301892       -3.0825060106
 H         -2.9405299954       -5.0808899672       -2.3290346117
 H         -1.1039307152       -5.3342498399       -0.7121893082
 H          2.7723263034       -1.1370868423        1.9442644657
 H          3.6026440064       -3.2219011303        2.8215501346
