47
 xtb: 6.7.1 (edcfbbe)
C           -1.72138654970606       -2.03143769006392        1.33696653870572
C           -1.12420225504518       -1.51694947909600        0.00367623188169
C           -1.82932086225476       -2.08664899025066       -1.25919594428338
C            0.30267478377212       -2.03986997545463       -0.01447814528828
C            0.51391483283978       -3.41207946624989       -0.03827575046280
C            1.78682278150889       -3.95327572326474       -0.02918778321854
C            2.88293384763766       -3.10847928625542       -0.00267561304846
C            2.69814359024059       -1.74107401866090        0.00894819918469
C            1.41197352772587       -1.19441064425373        0.00490381305554
N            1.23617909268691        0.17971488264662        0.01748365162996
C            2.39661563122367        1.00962075370297        0.00977502064443
C            2.96167979498785        1.40290493437513       -1.19730563604078
C            4.09250663733143        2.20109114280945       -1.19966212359654
C            4.66138892315184        2.60487181603749       -0.00256981657471
C            4.09875419868300        2.21064128531051        1.20058750398851
C            2.96784593004614        1.41257293208102        1.21050288165210
C           -0.01890434272846        0.75864016032833        0.00527012574746
C           -0.08133685852623        2.17350952054953        0.00777277981850
C           -1.27252617593533        2.82528769343487        0.01051369678322
C           -2.48136307725139        2.10310069631435        0.00238607778666
C           -3.70992945714602        2.79291212854106        0.00889696263128
C           -4.87546542641812        2.08865331458125       -0.00350845599246
F           -6.06950575053231        2.74887447546990        0.00635100473959
C           -4.88329246205214        0.69160287622319       -0.03397942412451
C           -3.69641097800439        0.01290592613229       -0.04370929340279
C           -2.44200650101629        0.67832882079797       -0.01515585194654
C           -1.18510230719191        0.00455157089280       -0.00636905984582
H           -2.11667972709116       -3.07418233693825        1.18235308186867
H           -2.58570066280433       -1.43140375367926        1.65170225252477
H           -1.00311783827651       -2.05354284351318        2.09786822128781
H           -2.30010490700903       -3.01293967825659       -1.09803545328239
H           -2.50493029379170       -1.36333622232555       -1.71001502735711
H           -1.02196691499102       -2.24256019500124       -2.04339663642854
H           -0.33609850486924       -4.07640199192252       -0.02040683147365
H            1.92042480638434       -5.02473855768319       -0.01229706900603
H            3.88518658064657       -3.51156965366653        0.00171681959295
H            3.55702393866107       -1.08770578427637        0.00653829400234
H            2.51382085540773        1.08784596537303       -2.13104764982096
H            4.53386284708221        2.51343772237370       -2.13713150187068
H            5.54397335910217        3.22709039837097       -0.00232625060532
H            4.53720732889336        2.51845574333967        2.13571497971243
H            2.51710898696144        1.09297196529687        2.13616809746624
H            0.83801654991896        2.73758366366808        0.00342088107644
H           -1.30588807110193        3.90469775001275        0.00550365230875
H           -3.72006485021834        3.87218095893610        0.00686856104449
H           -5.82764134287288        0.16931932383733       -0.01548774639368
H           -3.74461825224013       -1.06109571106657       -0.02440641006900
