54
 xtb: 6.7.1 (edcfbbe)
C           -4.85485239908545       -0.02662755742719        1.24872448427296
C           -3.87987691180299        0.00222306059060        0.05613718629560
C           -4.66247780029794        0.02314467661727       -1.27048551791292
C           -3.02583135622186       -1.25146407437691        0.10032188948774
C           -3.63147710508374       -2.49806780673737        0.01115200246342
C           -2.90440593840873       -3.67375238595343        0.05730180554800
C           -1.52919657321254       -3.61600911262504        0.20033222751914
C           -0.90118059022680       -2.39142288731221        0.29430417280425
C           -1.63524580791832       -1.20281499555191        0.24385428603561
N           -0.97503442497150        0.01488379084189        0.35116333007846
C            0.43109777879716        0.01836051073334        0.53374115266770
C            0.96227418681218        0.07228642624832        1.81008999511197
C            2.34290209444000        0.07404377840482        2.06373073634638
C            3.20075044091219        0.02800450259182        0.98806739296948
C            2.65958670100916       -0.01702489721778       -0.31989350851303
C            3.65944817716512       -0.04602951027403       -1.32166758131044
C            3.27899428507971       -0.08299944450941       -2.64348800915640
C            1.90417507250478       -0.09274692939734       -2.93982022057234
C            0.93125159830741       -0.06763417544421       -1.96674727168098
C            1.29085659065177       -0.02790420516752       -0.60016195980998
C            4.92806051016210       -0.02498539256815       -0.62023923044914
N            6.12823754308068       -0.04602988053943       -1.12913575050378
C            7.08673565452884       -0.01776695748739       -0.17845140899481
N            8.39383152930631       -0.02796628914010       -0.31954780964135
O            8.89397545037012        0.00791494843872        0.92178053349647
N            7.95641473587556        0.03956415706816        1.87696578823098
C            6.80308662666587        0.02348289462205        1.24571128180828
N            5.55359563472418        0.04624387013975        1.75659109528347
C            4.64030230398627        0.01934673803016        0.82601841271092
C           -1.64982305947954        1.22551332855498        0.29173234953483
C           -0.92670688142376        2.42006199066831        0.35824176192767
C           -1.56752115609728        3.64002033967835        0.29800556741376
C           -2.94437081091922        3.68704571817681        0.16699950857828
C           -3.65939789231199        2.50542828563490        0.09218381088749
C           -3.04069247043617        1.26331721651367        0.14816239873803
H           -5.49023285134980        0.87324035890930        1.23447793519933
H           -4.29801847540049       -0.01499254237561        2.18421335111617
H           -5.49090922304489       -0.88821519470710        1.22155197586869
H           -3.97097048762605        0.01540590931703       -2.11119811376025
H           -5.29156367432299       -0.87466672842820       -1.35310380868876
H           -5.29864494777556        0.88428290830216       -1.34106410744018
H           -4.71345924476549       -2.55951237896804       -0.06545562251989
H           -3.42558336624763       -4.62904685035482        0.03371785882151
H           -0.95883100757908       -4.53170437018545        0.28097043746937
H            0.16328199997997       -2.36457972577513        0.42812221036613
H            0.27911716027720        0.03509822645928        2.64695469523299
H            2.71326228712482        0.03456583782569        3.07659351398104
H            4.01200282595315       -0.03297585898745       -3.43482589864706
H            1.60672576159910       -0.03820300156769       -3.97763117996959
H           -0.11273609458406       -0.02393963626608       -2.24106842775303
H            0.15601908842964        2.37613595534661        0.44065599353018
H           -0.97341003024237        4.54085955793233        0.31305063013047
H           -3.44117190551470        4.63207243219352        0.07340947292014
H           -4.72236299384003        2.55920541436667       -0.04100680018565
