  61
 
 C          8.7515859643        0.7667585181        0.5496593972
 C          8.0285614220       -0.1485283185        1.2970564940
 C          6.6643779572       -0.2761075431        1.1102258610
 C          6.0028633458        0.5129005015        0.1704965421
 C          4.5486431147        0.4003519610       -0.0168877356
 C          3.8973012275       -0.8113286207       -0.3046159891
 C          4.6462035860       -1.9891502602       -0.5729348660
 C          4.0396621387       -3.1681769853       -0.8777347056
 C          2.6346567436       -3.2417037113       -0.9597563581
 C          1.8772774819       -2.1353575289       -0.7281877274
 C          2.4626633280       -0.8882188514       -0.3801268107
 C          1.6584003112        0.2452869007       -0.1635895578
 C          0.1941614160        0.2011360064       -0.1181480140
 C         -0.4753579320       -0.6966739005        0.7149865543
 C         -1.8518243519       -0.7127773241        0.7793052784
 C         -2.6095864249        0.1636185872       -0.0009954289
 N         -4.0032637280        0.1379800102        0.0517867656
 C         -4.6763602019       -1.0791885379        0.2265520512
 C         -5.8130245277       -1.1496760282        1.0316859909
 C         -6.4754321699       -2.3510396314        1.1968921859
 C         -6.0144110731       -3.4988595975        0.5722463371
 C         -4.8844274542       -3.4346429698       -0.2272404553
 C         -4.2202561698       -2.2361890509       -0.4051530385
 C         -4.7365987757        1.3268620774       -0.0628582565
 C         -5.9446217125        1.3459377943       -0.7597755313
 C         -6.6707785279        2.5171417794       -0.8619062364
 C         -6.2035757584        3.6856220851       -0.2818519693
 C         -5.0011796780        3.6730448684        0.4069070811
 C         -4.2723605297        2.5048395534        0.5224296616
 C         -1.9419426773        1.0680583120       -0.8301509893
 C         -0.5651775304        1.0920457036       -0.8761012386
 C          2.3122034008        1.4662430318        0.0370686619
 N          1.7411713962        2.6648144135        0.2310693812
 S          2.8937097224        3.7535110084        0.4659981462
 N          4.1729573081        2.7952638232        0.3502424543
 C          3.7535046822        1.5428661076        0.1098129006
 C          6.7354731234        1.4421983259       -0.5636246545
 C          8.1001520726        1.5633133514       -0.3778540409
 H          9.8178049035        0.8629580127        0.6938528578
 H          8.5284076076       -0.7647275089        2.0306835821
 H          6.0991019039       -0.9779150900        1.7074821229
 H          5.7233112949       -1.9225309754       -0.5540703495
 H          4.6310150366       -4.0482070802       -1.0833801555
 H          2.1663554082       -4.1766313118       -1.2300572677
 H          0.8043121714       -2.1817553648       -0.8343073684
 H          0.0950381333       -1.3641804782        1.3450162143
 H         -2.3528185748       -1.4010561318        1.4443084787
 H         -6.1690702717       -0.2580518491        1.5269292869
 H         -7.3532006983       -2.3923306246        1.8254251628
 H         -6.5323649621       -4.4365804930        0.7068931332
 H         -4.5216239948       -4.3229601569       -0.7236875180
 H         -3.3456902771       -2.1859772016       -1.0374993963
 H         -6.3068187244        0.4381212602       -1.2201606767
 H         -7.6040662577        2.5186222939       -1.4061384799
 H         -6.7721119982        4.5996125451       -0.3661493769
 H         -4.6309536480        4.5779716758        0.8664637822
 H         -3.3402293274        2.4958090799        1.0685212698
 H         -2.5141551748        1.7489503292       -1.4429180294
 H         -0.0636612601        1.7936263844       -1.5250301909
 H          6.2279928284        2.0624338142       -1.2873255723
 H          8.6580783623        2.2826230100       -0.9597766499
