  76
 
 O          7.5436724378        3.5905974562        0.6789307088
 C          7.6750416936        2.4253589124        0.3588417037
 C          9.0040535033        1.8597808392        0.0101607216
 C          9.3554060349        0.5524267547        0.3393451034
 C         10.6163774830        0.0764371038        0.0301660803
 C         11.5316343039        0.8931367547       -0.6145849132
 C         11.1922378897        2.1981770767       -0.9341080564
 C          9.9389186324        2.6833197943       -0.6131812882
 C          6.5158890306        1.5022193134        0.2993724825
 C          5.4330360884        1.7331106919        1.1475416138
 C          4.3281095104        0.9102498450        1.1202450096
 C          4.2702988640       -0.1494991295        0.2147791113
 N          3.1519196326       -0.9830785411        0.1764099449
 C          3.1717232022       -2.3665937146        0.1632232915
 C          4.2491888728       -3.2374090768        0.2331639907
 C          3.9843032424       -4.5940445436        0.2359059297
 C          2.6808624005       -5.0810871228        0.1814303279
 C          1.6031251335       -4.2189666653        0.1405477322
 C          1.8447798595       -2.8521033913        0.1365417287
 C          0.9867585095       -1.6991866813        0.1238712433
 C         -0.3894344932       -1.5433238908        0.0771260443
 C         -0.9276032905       -0.2624636746        0.0561128820
 C         -2.3824132173       -0.0668732408        0.0192303147
 C         -2.9894856177        0.9434163199        0.7638493039
 C         -4.3561194574        1.1229899038        0.7409070066
 C         -5.1645762480        0.3009668569       -0.0445264136
 N         -6.5504685522        0.4830412137       -0.0755142835
 C         -7.0882815562        1.7737314147       -0.0231379122
 C         -8.2679761188        2.0207994780        0.6788923662
 C         -8.7974379457        3.2956559195        0.7236749514
 C         -8.1598602542        4.3440438749        0.0807075144
 C         -6.9854360445        4.1051178545       -0.6139985471
 C         -6.4525557857        2.8322260686       -0.6720224495
 C         -7.3993560123       -0.6261362672       -0.1591463329
 C         -8.5696392001       -0.5664889556       -0.9157172140
 C         -9.4062664389       -1.6628160312       -0.9914158899
 C         -9.0895545991       -2.8354692157       -0.3253802969
 C         -7.9262322104       -2.9016004725        0.4238201278
 C         -7.0873764379       -1.8080189112        0.5127986219
 C         -4.5626930149       -0.7069205355       -0.7983800547
 C         -3.1968027324       -0.8886390101       -0.7586722097
 C         -0.0695331188        0.8460581869        0.0583549005
 C          1.3032191178        0.7131942175        0.0990034944
 C          1.8324070520       -0.5680888145        0.1550730006
 C          5.3370412099       -0.3647552387       -0.6580545019
 C          6.4510078875        0.4473528952       -0.6102062431
 H          8.6503916429       -0.0800485388        0.8592681980
 H         10.8878220643       -0.9353036192        0.2937761607
 H         12.5125990821        0.5140287621       -0.8605774354
 H         11.9084150498        2.8379934175       -1.4279777133
 H          9.6599644225        3.7005033576       -0.8448317495
 H          5.4875115492        2.5598401338        1.8399827177
 H          3.5102718923        1.0692216630        1.8065207997
 H          5.2633431723       -2.8730551582        0.2972856384
 H          4.8073900757       -5.2915045446        0.2857449996
 H          2.5155404226       -6.1481076982        0.1825709751
 H          0.5914457815       -4.5947926266        0.1182223932
 H         -1.0340834388       -2.4090824997        0.0747547043
 H         -2.3838531549        1.5774251061        1.3947217956
 H         -4.8108637777        1.8997151156        1.3383984796
 H         -8.7620506685        1.2072130408        1.1897240972
 H         -9.7106926265        3.4731083946        1.2725752172
 H         -8.5750771457        5.3396116508        0.1207595803
 H         -6.4839488619        4.9151944811       -1.1230532775
 H         -5.5422794124        2.6468802286       -1.2233597407
 H         -8.8142191057        0.3433239853       -1.4442773139
 H        -10.3083859033       -1.6033943248       -1.5825662228
 H         -9.7443774138       -3.6911902041       -0.3896693953
 H         -7.6736332411       -3.8098502419        0.9512273579
 H         -6.1861541110       -1.8589693210        1.1062015579
 H         -5.1762402240       -1.3420609000       -1.4207010239
 H         -2.7484987194       -1.6614961727       -1.3657001641
 H         -0.4979868418        1.8355717533        0.0003259594
 H          1.9403457661        1.5841127282        0.0704671403
 H          5.2739404842       -1.1591972434       -1.3864018609
 H          7.2614499951        0.2844616529       -1.3053955209
