  76
 
 O          8.8792048647        0.3719459600       -1.1933773407
 C          7.9098362690        0.9499839191       -0.6182657854
 C          8.0962858015        2.3142390332       -0.1089860431
 C          9.3710317821        2.7086167833        0.3149759307
 C          9.5862416127        3.9906969622        0.7741518418
 C          8.5485606652        4.9108592268        0.7997255360
 C          7.2934020118        4.5395256069        0.3403587404
 C          7.0640413315        3.2578954264       -0.1178251338
 C          6.6528658605        0.2759274953       -0.4459117447
 C          5.6813632235        0.6492191600        0.5085172361
 C          4.5077943988       -0.0497179867        0.6256362279
 C          4.2572280342       -1.1665873716       -0.1820645756
 N          3.0475297218       -1.8630850304       -0.0645431948
 C          2.9137742154       -3.2282236480        0.0940365176
 C          3.8952841344       -4.2019017971        0.2157601912
 C          3.4857748262       -5.5114582768        0.3857975433
 C          2.1357516739       -5.8494338488        0.4429745967
 C          1.1536818053       -4.8805126913        0.3477360369
 C          1.5399872904       -3.5594502406        0.1783559632
 C          0.8180676201       -2.3212579775        0.0660747638
 C         -0.5259345439       -2.0009752229        0.0671388492
 C         -0.9113523505       -0.6675337522       -0.0715088531
 C         -2.3251694732       -0.3001941210       -0.0563449133
 C         -2.7548236183        0.8915892471        0.5353256129
 C         -4.0860871263        1.2390454298        0.5577790908
 C         -5.0466819589        0.4078443819       -0.0258129894
 N         -6.3940572538        0.7594128879       -0.0119120283
 C         -6.7721174231        2.1046597743       -0.1023348148
 C         -7.8561350274        2.5826606461        0.6340814261
 C         -8.2290316905        3.9090570892        0.5384534379
 C         -7.5286661382        4.7773187828       -0.2834907754
 C         -6.4504911302        4.3071710226       -1.0159171718
 C         -6.0729352678        2.9813001137       -0.9322826359
 C         -7.3795783705       -0.2296601648        0.0925453023
 C         -8.5730820346       -0.1128761474       -0.6200825542
 C         -9.5450329314       -1.0879258122       -0.5102262858
 C         -9.3428489789       -2.1917979699        0.3025376652
 C         -8.1583498687       -2.3126117209        1.0112588202
 C         -7.1823018995       -1.3404008945        0.9132331037
 C         -4.6255031199       -0.7834889035       -0.6238918023
 C         -3.2934735144       -1.1287802209       -0.6313837233
 C          0.0741462287        0.3229261018       -0.2358318561
 C          1.4174299314        0.0244623308       -0.2522582323
 C          1.7965942923       -1.3034989898       -0.0800164665
 C          5.2387379847       -1.5856964313       -1.0909254979
 C          6.4131491546       -0.8945608396       -1.2080518592
 H         10.1737792646        1.9876681798        0.2878798231
 H         10.5712979033        4.2777826238        1.1134157823
 H          8.7193777320        5.9150971512        1.1584265976
 H          6.4882977590        5.2608624219        0.3273343243
 H          6.0956211132        2.9958487627       -0.5176818125
 H          5.8783615803        1.4686492784        1.1825329709
 H          3.7805132791        0.2315187506        1.3742052914
 H          4.9427975226       -3.9447749309        0.1915605323
 H          4.2291490776       -6.2886184686        0.4811512830
 H          1.8557678767       -6.8839411239        0.5743390299
 H          0.1081833238       -5.1428121970        0.4090098610
 H         -1.2673942809       -2.7738331273        0.2018279249
 H         -2.0349766178        1.5354414857        1.0177282913
 H         -4.3994491278        2.1518900835        1.0427881099
 H         -8.3954829482        1.9091311234        1.2837880182
 H         -9.0673116432        4.2688261398        1.1161820432
 H         -7.8216577730        5.8135637176       -0.3533521553
 H         -5.9041251624        4.9757880063       -1.6642686689
 H         -5.2410712256        2.6124507434       -1.5141217245
 H         -8.7267447292        0.7416061276       -1.2626306243
 H        -10.4632827167       -0.9889480931       -1.0696249935
 H        -10.1038236707       -2.9526383399        0.3836676679
 H         -7.9962807039       -3.1661540991        1.6524899864
 H         -6.2651102140       -1.4282473370        1.4768336238
 H         -5.3540720940       -1.4251590952       -1.0973760961
 H         -2.9889329536       -2.0390158518       -1.1256074360
 H         -0.2370632822        1.3453383763       -0.3883995944
 H          2.1556044432        0.7958168993       -0.4090399147
 H          5.0441654688       -2.4417191346       -1.7207646981
 H          7.1732244963       -1.2028112879       -1.9094161792
