  72
 
 C          3.1377155459        3.3903195379        1.3136150797
 C          1.9429683456        2.5079250175        1.1465261519
 C          1.8048900260        1.3405907720        1.8879413331
 C          0.7123891457        0.5087139604        1.7353831489
 C          0.5778445893       -0.6626212860        2.6603382565
 C         -0.2734659651        0.7944985617        0.7500580234
 B         -1.2978739503       -0.2915361887        0.3066882829
 C         -0.8714066178       -1.7134276036       -0.0349062736
 C         -1.7842279679       -2.8009529089        0.0395948136
 C         -1.4067385514       -4.1083495844       -0.0795830369
 C         -0.0638675446       -4.4379523790       -0.3239940773
 C          0.8596540267       -3.4198984040       -0.4502891520
 C          0.4897979000       -2.0846450712       -0.3520081087
 N          1.4963315620       -1.1269176804       -0.5145296861
 C          2.7004578338       -1.1191509178        0.1575024222
 C          3.1563946366       -1.9598810981        1.1650681207
 C          4.4080011861       -1.7135347491        1.6969354630
 C          5.1963410733       -0.6586881652        1.2422700710
 C          4.7497765498        0.1819836036        0.2384011195
 C          3.4965842495       -0.0437074087       -0.3073669690
 C          2.7360358661        0.6044889156       -1.3404929606
 C          2.9916876848        1.6704766009       -2.1884955981
 C          2.0451704235        1.9989596591       -3.1411144406
 C          0.8712781623        1.2615274634       -3.2691930213
 C          0.5949394048        0.1967917563       -2.4326336294
 C          1.5201755425       -0.1092297373       -1.4469025579
 C         -2.8462740311        0.0737925876        0.2315957855
 C         -3.4659694549        0.6658838055        1.3459355319
 C         -2.7073300377        0.9200159992        2.6141220952
 C         -4.8139322752        0.9820938576        1.3120265687
 C         -5.5938975362        0.7327591723        0.1913559857
 C         -7.0515814413        1.0840434997        0.1837605061
 C         -4.9814814149        0.1503773658       -0.9034256804
 C         -3.6304704847       -0.1780656163       -0.9028901248
 C         -3.0703476228       -0.7336364731       -2.1816312748
 C         -0.2010263638        2.0620911353        0.1127244882
 C         -1.2972476771        2.5130480426       -0.8003351664
 C          0.9006793744        2.8685989303        0.2908123797
 H          3.3690262706        3.9018608698        0.3815246815
 H          4.0020585906        2.8093689701        1.6280979806
 H          2.9452849232        4.1496649281        2.0736752746
 H          2.5712956597        1.0803956795        2.6058933431
 H          1.5412104318       -0.9209966031        3.0945146921
 H         -0.0981198147       -0.4031547865        3.4764705708
 H          0.1638883855       -1.5318873813        2.1566785941
 H         -2.8194948272       -2.5636959400        0.2402229514
 H         -2.1394368929       -4.8967799578        0.0147789767
 H          0.2361366756       -5.4667070210       -0.4458463227
 H          1.8882394451       -3.6502547460       -0.6944662176
 H          2.5522162496       -2.7779103585        1.5255870012
 H          4.7838789868       -2.3528496054        2.4821993175
 H          6.1697628684       -0.4992727753        1.6822108769
 H          5.3619367392        0.9985384195       -0.1138765768
 H          3.9153760401        2.2239092334       -2.1102629201
 H          2.2241621124        2.8274105345       -3.8105267232
 H          0.1656888673        1.5241193150       -4.0436059807
 H         -0.3041035800       -0.3853570370       -2.5437817287
 H         -2.3445319625       -0.0217839059        3.0234817315
 H         -3.3427953202        1.3991745192        3.3558090770
 H         -1.8451593499        1.5582561868        2.4290360742
 H         -5.2748876435        1.4215698028        2.1866792246
 H         -7.1907225101        2.1406965593        0.4102735617
 H         -7.5841632029        0.5088898447        0.9411823599
 H         -7.4970266740        0.8744805575       -0.7857119383
 H         -5.5624581743       -0.0432276595       -1.7953909210
 H         -2.7291986480        0.0816127064       -2.8230787283
 H         -2.2354493919       -1.4014067377       -1.9946053304
 H         -3.8368000825       -1.2822995330       -2.7255332014
 H         -1.0092228234        3.4182192243       -1.3301684856
 H         -1.5285811260        1.7365481528       -1.5245994467
 H         -2.2064948043        2.7135350048       -0.2344356353
 H          0.9699893976        3.8012935682       -0.2523479460
