93

C     -5.181427   -3.041491    0.788954
C     -4.310018   -2.677793   -0.441472
C     -5.153554   -2.802545   -1.737743
C     -3.154763   -3.685094   -0.522430
C     -3.434309   -5.067296   -0.667811
C     -2.421134   -6.019554   -0.746202
C     -1.100576   -5.613429   -0.680772
C     -0.803439   -4.257886   -0.535844
C     -1.813334   -3.269108   -0.452370
N     -1.477996   -1.878541   -0.298930
C     -0.100023   -1.490247   -0.215366
C      0.611463   -1.154874   -1.361243
C      1.946981   -0.775139   -1.252882
C      2.616303   -0.716073   -0.007288
C      1.906863   -1.054969    1.172650
C      0.547221   -1.438674    1.029590
C      2.582306   -0.994667    2.431148
C      1.966129   -1.311770    3.671687
C      2.648284   -1.244868    4.888146
C      3.974879   -0.857471    4.907851
C      4.609487   -0.539389    3.709955
C      3.942816   -0.598136    2.463140
C      4.628465   -0.265977    1.281472
N      5.929606    0.112747    1.323264
C      6.593161    0.434169    0.188683
C      7.939422    0.826672    0.229387
C      8.638791    0.897036    1.453696
C      9.969859    1.284729    1.497657
C     10.576674    1.596048    0.305250
N      9.944668    1.541708   -0.884334
C      8.641382    1.164259   -0.946555
C      7.979287    1.105777   -2.177404
N      8.631894    1.425806   -3.324793
C      7.987710    1.367508   -4.507668
C      6.671916    0.993542   -4.633336
C      5.989195    0.662980   -3.472060
C      6.625740    0.710546   -2.212862
C      5.932176    0.375618   -1.040308
N      4.633717   -0.002289   -1.086417
C      3.965506   -0.324888    0.047839
C     -2.504260   -0.870057   -0.224569
C     -2.163079    0.495245   -0.061770
C     -3.139241    1.512165    0.008977
C     -3.070038    2.921897    0.200456
C     -1.993929    3.818900    0.381272
C     -2.241048    5.187486    0.510020
C     -3.540175    5.672927    0.446985
C     -4.622003    4.804820    0.271378
C     -4.375843    3.418501    0.179163
N     -5.233106    2.331947   -0.013919
C     -6.655636    2.405214   -0.099095
C     -7.374195    3.200080    0.802662
C     -8.766423    3.266170    0.718132
C     -9.443148    2.545355   -0.264896
C     -8.730792    1.755090   -1.165822
C     -7.338805    1.681479   -1.084993
C     -4.477253    1.161432   -0.111608
C     -4.848134   -0.192173   -0.229806
C     -3.861733   -1.213067   -0.298243
H     -4.603597   -2.957506    1.718052
H     -6.056510   -2.390346    0.889299
H     -5.569651   -4.064579    0.737580
H     -5.542867   -3.815409   -1.887561
H     -6.027070   -2.141539   -1.734647
H     -4.554785   -2.548409   -2.621564
H     -4.461618   -5.421450   -0.721638
H     -2.666661   -7.072011   -0.858177
H     -0.297496   -6.342679   -0.741423
H      0.248411   -3.987760   -0.489968
H      0.128600   -1.187336   -2.334313
H      2.477335   -0.517519   -2.169683
H     -0.053607   -1.709041    1.893899
H      0.925582   -1.622134    3.719204
H      2.136967   -1.496229    5.813841
H      4.518919   -0.800612    5.846625
H      5.655700   -0.236571    3.753180
H      8.137269    0.645483    2.387203
H     10.511498    1.340462    2.434409
H     11.616281    1.907360    0.262723
H      8.584563    1.639817   -5.373195
H      6.188327    0.958877   -5.602338
H      4.944761    0.363589   -3.548095
H     -1.126224    0.804357    0.022030
H     -0.972751    3.448647    0.410671
H     -1.409619    5.874712    0.644438
H     -3.719912    6.742809    0.525152
H     -5.625023    5.212187    0.190448
H     -6.873671    3.739925    1.602914
H     -9.324379    3.874796    1.425423
H    -10.526969    2.600420   -0.329468
H     -9.259453    1.202706   -1.938695
H     -6.803711    1.091081   -1.824987
H     -5.901126   -0.456484   -0.249937
