  72
 
 N          2.6312721010       -4.7335395008        0.1109987612
 C          1.5289389432       -4.4193217885        0.1480989283
 C          0.1575810850       -4.0765273078        0.1830105770
 C         -0.6576669589       -5.0275522464        0.8361300269
 N         -1.2797400565       -5.8138042788        1.3932509631
 C         -0.3119915689       -2.9241262755       -0.3691218493
 C          0.6039676943       -1.9311537371       -0.9442793597
 C          0.3351305855       -1.4148809436       -2.2126795148
 C          1.1640015298       -0.4460543971       -2.7453442125
 C          2.2348150033        0.0391618406       -2.0211590580
 C          2.5059395809       -0.4559613097       -0.7428463038
 N          3.5674414802        0.0460181530       -0.0004450674
 C          3.9184360801        1.3993005684       -0.1013355863
 C          5.2588094724        1.7814471277       -0.0755507172
 C          5.6028192189        3.1165091020       -0.1613531304
 C          4.6217976897        4.0874330782       -0.2793314105
 C          3.2888503883        3.7117869350       -0.3062455682
 C          2.9332290537        2.3801241141       -0.2148470386
 C          4.2775067760       -0.7931275234        0.8756041352
 C          4.7133114678       -0.3134558108        2.1089917152
 C          5.4137579074       -1.1409880634        2.9658502414
 C          5.6775402318       -2.4542372129        2.6129224304
 C          5.2428181092       -2.9352454880        1.3889024264
 C          4.5546119634       -2.1113433906        0.5196637305
 C          1.6878987944       -1.4577010254       -0.2192521868
 C         -1.7288898407       -2.5720134339       -0.4239377124
 C         -2.7337835870       -3.4972437160       -0.7034605599
 C         -4.0453024853       -3.0647869091       -0.7955849874
 C         -4.3737549897       -1.7341560561       -0.6190832521
 C         -3.3790446298       -0.7968198474       -0.3236760168
 N         -3.6754632274        0.5511654354       -0.1534999144
 C         -4.9101804029        0.9582239138        0.3735844759
 C         -5.5232756816        0.2363338392        1.3960747801
 C         -6.7395341017        0.6500584076        1.9044985470
 C         -7.3552734811        1.7889504485        1.4120667736
 C         -6.7444342079        2.5146163114        0.4025288956
 C         -5.5325806486        2.1043054826       -0.1183626517
 C         -2.7069912632        1.5235446453       -0.4549752938
 C         -2.5223562752        2.6171524590        0.3888413269
 C         -1.5578188256        3.5636063667        0.0995705431
 C         -0.7610557334        3.4317230284       -1.0256386647
 C         -0.9447338201        2.3498021869       -1.8709180816
 C         -1.9140374199        1.4052523433       -1.5959055449
 C         -2.0623317448       -1.2354517554       -0.2232512566
 H         -0.5034467445       -1.7937906554       -2.7774394488
 H          0.9743035541       -0.0654914675       -3.7379503263
 H          2.8735976040        0.8025176395       -2.4391488495
 H          6.0238700497        1.0240610333        0.0111725560
 H          6.6447725531        3.3998526102       -0.1429478531
 H          4.8941845555        5.1296211479       -0.3479105929
 H          2.5175837764        4.4635657302       -0.3868980323
 H          1.8908185654        2.0941754400       -0.2251440146
 H          4.4969349473        0.7070518063        2.3904527641
 H          5.7458405330       -0.7588008324        3.9200714731
 H          6.2181824240       -3.0988658194        3.2891124832
 H          5.4379045173       -3.9569129691        1.1030447714
 H          4.2239216971       -2.4910697126       -0.4352994041
 H          1.8784234903       -1.8320941508        0.7761029195
 H         -2.4893151080       -4.5328065964       -0.8805046050
 H         -4.8237281210       -3.7759998819       -1.0269296605
 H         -5.3989766235       -1.4111393361       -0.7186732948
 H         -5.0386033588       -0.6441492955        1.7921234869
 H         -7.2043934538        0.0834098474        2.6976275557
 H         -8.3040169481        2.1100325110        1.8140278809
 H         -7.2182732148        3.4029212807        0.0117933442
 H         -5.0590687341        2.6666419062       -0.9098860557
 H         -3.1355468920        2.7152359627        1.2726743519
 H         -1.4212875640        4.4037975233        0.7642348981
 H         -0.0045548857        4.1689718957       -1.2467931732
 H         -0.3326734886        2.2434981398       -2.7539275319
 H         -2.0611213802        0.5682267217       -2.2621876184
 H         -1.2855679561       -0.5294882476        0.0306986378
