  68
 
 O          4.0535314885       -0.2319355998        2.2999956549
 P          3.6533385951       -0.1212805201        0.8797594440
 C          4.3196831102        1.3645199040        0.0716775105
 C          4.6127288823        2.4545625851        0.8869797794
 C          5.0101246911        3.6540643714        0.3306736163
 C          5.1012671212        3.7805505033       -1.0491540173
 C          4.7980736870        2.7007603022       -1.8657104835
 C          4.4041189569        1.4975278898       -1.3131844412
 C          4.3053367538       -1.5225618529       -0.1074201912
 C          5.6611656085       -1.5165553204       -0.4030763849
 C          6.2303485737       -2.5950049930       -1.0563774948
 C          5.4446936065       -3.6820255702       -1.4074183522
 C          4.0941951149       -3.6933452832       -1.0991503719
 C          3.5224798400       -2.6157162726       -0.4432623233
 C          1.8804349131       -0.1113808410        0.6362268637
 C          1.3055878348       -0.0191166047       -0.6628444260
 C         -0.0042493662        0.3049432417       -0.8224621107
 C         -0.8613557187        0.4433584436        0.3085476703
 Si        -2.6889732921        0.0830179127        0.0860375365
 C         -3.2607852017       -1.7189462162       -0.1352804630
 C         -4.3116069368       -2.2702808827        0.5949258776
 C         -4.6452570152       -3.6060631781        0.4610116742
 C         -3.9328200027       -4.4170740597       -0.4077720024
 C         -2.8828823303       -3.8830334012       -1.1390096911
 C         -2.5509133441       -2.5482128847       -1.0046363652
 C         -3.1713980990        1.0091581786       -1.5108490738
 C         -2.6969980085        2.2979840547       -1.7407439805
 C         -3.0921070126        3.0073618010       -2.8609672329
 C         -3.9653995223        2.4357402458       -3.7722882278
 C         -4.4426870756        1.1536467900       -3.5550303945
 C         -4.0462207160        0.4457728377       -2.4333472062
 C         -3.5496157624        0.7564547916        1.6447080776
 C         -4.3369866091        1.8971864986        1.5635081062
 C         -4.9884631337        2.3814458175        2.6858216491
 C         -4.8527412786        1.7336122679        3.9016670287
 C         -4.0680742619        0.5953466281        3.9924425357
 C         -3.4205943756        0.1123150299        2.8682698573
 C         -0.2573610634        0.4757980276        1.6001927985
 C          1.0532369068        0.1482857512        1.7592928701
 H          4.5395890607        2.3290355380        1.9592782383
 H          5.2503418820        4.4923327806        0.9690498863
 H          5.4106013031        4.7186698391       -1.4859251670
 H          4.8733611501        2.7990601986       -2.9394321657
 H          4.1859754569        0.6493371930       -1.9468792346
 H          6.2575858291       -0.6593131847       -0.1156888353
 H          7.2853757869       -2.5888913479       -1.2891568662
 H          5.8886291493       -4.5241134451       -1.9179349427
 H          3.4844033050       -4.5443527751       -1.3661627392
 H          2.4709042094       -2.6163585203       -0.1895529343
 H          1.9334759612       -0.1784556339       -1.5276936810
 H         -0.4187005650        0.3989554439       -1.8149580399
 H         -4.8793015768       -1.6443756985        1.2680650937
 H         -5.4659644369       -4.0149352349        1.0331594829
 H         -4.1955748003       -5.4594069043       -0.5164720586
 H         -2.3209892367       -4.5103358856       -1.8166178112
 H         -1.7305257212       -2.1400378528       -1.5764220251
 H         -2.0114817374        2.7473887397       -1.0368369412
 H         -2.7164274083        4.0076796243       -3.0232791667
 H         -4.2698007689        2.9866593092       -4.6505682400
 H         -5.1243968118        0.7022098867       -4.2617399131
 H         -4.4195843216       -0.5549239644       -2.2734823905
 H         -4.4465790827        2.4076371034        0.6183481660
 H         -5.6002203493        3.2689684337        2.6090030862
 H         -5.3549542816        2.1154038098        4.7788329928
 H         -3.9603629165        0.0831712973        4.9378828013
 H         -2.8135994982       -0.7788869318        2.9422971398
 H         -0.8571410790        0.7261727297        2.4618021776
 H          1.5083550892        0.1322102611        2.7403554826
