  36
 
 O          1.9503303336       -0.6962956534       -2.5851235391
 S          2.3940487789       -1.0840150330       -1.2643211813
 O          3.6410677390       -1.8040530171       -1.1890912571
 C          2.4187553468        0.3591189410       -0.2279462964
 C          3.5978080842        1.0125126015        0.0810913897
 C          3.5608444606        2.1633364650        0.8470770476
 C          2.3379685039        2.6418066589        1.3003132301
 C          1.1629929364        1.9766800120        1.0078702588
 C          1.1880730611        0.8151261748        0.2308940356
 N          0.0000020426        0.1045807613        0.0000068329
 C         -1.1880349809        0.8151805490       -0.2308901686
 C         -1.1628988631        1.9767293085       -1.0078719915
 C         -2.3378433949        2.6419065580       -1.3003248160
 C         -3.5607430808        2.1634930204       -0.8470930806
 C         -3.5977621158        1.0126749600       -0.0811013317
 C         -2.4187400441        0.3592307809        0.2279461800
 S         -2.3941017493       -1.0839007996        1.2643264671
 O         -1.9503663954       -0.6961979843        2.5851276124
 O         -3.6411541701       -1.8038814007        1.1890978037
 C         -1.0772818100       -2.0166133484        0.5035441758
 C         -1.0905633605       -3.3970055980        0.4880891961
 C         -0.0000947194       -4.1009161526        0.0000099493
 C          1.0904050028       -3.3970572463       -0.4880741967
 C          1.0771861986       -2.0166643126       -0.5035360834
 C         -0.0000310734       -1.2838847958        0.0000025477
 H          4.5211497239        0.5997466796       -0.2936822724
 H          4.4737474234        2.6836084032        1.0884073617
 H          2.3006426306        3.5361218589        1.9027810666
 H          0.2202395939        2.3362075991        1.3899389099
 H         -0.2201277572        2.3362131716       -1.3899379066
 H         -2.3004744842        3.5362160960       -1.9027983570
 H         -4.4736217198        2.6838033804       -1.0884325494
 H         -4.5211241409        0.5999515820        0.2936689182
 H         -1.9625278916       -3.8976106286        0.8794508523
 H         -0.0001187068       -5.1784477406        0.0000128545
 H          1.9623465977       -3.8977038513       -0.8794336619
