  32
 
 N          6.0359396380        1.9933758824        0.0017052385
 C          5.0475140401        1.4083067176        0.0009143955
 C          3.8277776759        0.7033536248        0.0000217219
 C          2.6184242579        1.4012089441        0.0011488820
 C          1.3983937221        0.7305683717        0.0005816098
 N          0.2319468367        1.3654825049        0.0014070757
 C         -0.9097019278        0.7213677766        0.0012059441
 C         -0.9096828594       -0.7214111902        0.0002159837
 N          0.2319762933       -1.3655034697       -0.0008923291
 C          1.3984150879       -0.7305600980       -0.0009167187
 C          2.6184558058       -1.4011701994       -0.0022991621
 C          3.8277981906       -0.7032860755       -0.0019291230
 C          5.0475556318       -1.4081960065       -0.0035563044
 N          6.0360553113       -1.9932037801       -0.0049817054
 C         -2.2813274604       -1.1712418029        0.0006922012
 C         -2.9091813454       -2.3961398884        0.0004862382
 C         -4.3165056832       -2.4160104272        0.0013451548
 C         -5.0847972606       -1.2746872987        0.0022777758
 C         -4.4693514223       -0.0000590145        0.0024702417
 C         -5.0848233085        1.2745570344        0.0033137102
 C         -4.3165542398        2.4158953853        0.0034285155
 C         -2.9092301991        2.3960536231        0.0028177241
 C         -2.2813503289        1.1711688530        0.0019967126
 C         -3.0760987568       -0.0000448963        0.0017415186
 H          2.6160952862        2.4799322691        0.0024729936
 H          2.6161575630       -2.4798937995       -0.0036060319
 H         -2.3514415255       -3.3198582485       -0.0002595017
 H         -4.8069184580       -3.3785150276        0.0012510259
 H         -6.1621383554       -1.3462324078        0.0028859051
 H         -6.1621658080        1.3460797814        0.0038472892
 H         -4.8069857822        3.3783903710        0.0040218840
 H         -2.3515068258        3.3197822246        0.0029820673
