87

C      9.651099    0.250970    1.206503
C      8.779051   -0.119681   -0.021239
C      9.689976   -0.403709   -1.243949
C      8.005205   -1.403497    0.309666
C      8.713437   -2.587558    0.635628
C      8.057698   -3.776979    0.943709
C      6.674954   -3.812611    0.934545
C      5.958316   -2.658131    0.617061
C      6.598700   -1.436259    0.298809
N      5.833174   -0.261614   -0.025609
C      4.400479   -0.329691   -0.024590
C      3.707174   -0.690118   -1.186791
C      2.310602   -0.753713   -1.183370
C      1.574144   -0.459908   -0.022900
C      0.103205   -0.524209   -0.022509
C     -0.587625   -1.289681    0.930365
C     -1.985440   -1.349398    0.932620
C     -2.728482   -0.631560   -0.009946
C     -4.191443   -0.710494    0.014067
N     -4.843100   -1.834081   -0.198794
C     -6.178317   -1.518507   -0.183027
C     -7.284098   -2.365825   -0.422501
C     -7.022974   -3.702022   -0.793903
C     -8.069538   -4.574956   -1.067788
C     -9.377868   -4.122023   -0.971965
C     -9.639518   -2.798381   -0.594886
C     -8.604033   -1.872161   -0.301428
C     -8.805511   -0.519165    0.128753
C    -10.091796    0.036812    0.340294
C    -10.281217    1.332818    0.827305
C     -9.185762    2.118591    1.140241
C     -7.901555    1.621147    0.935054
C     -7.689420    0.330441    0.392791
C     -6.376681   -0.177699    0.136659
N     -5.082991    0.356115    0.150496
C     -4.721906    1.732422    0.171467
C     -5.347156    2.621079   -0.714504
C     -4.972370    3.967251   -0.728552
C     -3.972277    4.428405    0.134658
C     -3.589137    5.810089    0.118319
N     -3.281113    6.928856    0.105672
C     -3.346085    3.536634    1.012807
C     -3.715736    2.188688    1.031349
C     -2.050223    0.112668   -0.981225
C     -0.652033    0.170736   -0.980965
C      2.281826   -0.101443    1.137309
C      3.678303   -0.035989    1.138900
C      6.483257    0.980663   -0.350151
C      5.729331    2.134768   -0.672755
C      6.332494    3.352128   -0.990673
C      7.712243    3.449860   -0.994997
C      8.478381    2.329725   -0.682109
C      7.886369    1.083312   -0.356727
H     10.346784   -0.549213    1.481673
H     10.266609    1.139563    1.028754
H      9.026003    0.456732    2.084635
H      9.092836   -0.668220   -2.125796
H     10.306979    0.459973   -1.514790
H     10.387398   -1.228806   -1.062715
H      9.801223   -2.594492    0.652756
H      8.627997   -4.668724    1.188845
H      6.146949   -4.731829    1.172368
H      4.873993   -2.734737    0.622941
H      4.259254   -0.923964   -2.093601
H      1.798573   -1.048950   -2.097160
H     -0.037681   -1.866229    1.671967
H     -2.493194   -1.967361    1.670905
H     -5.996762   -4.057177   -0.876028
H     -7.862022   -5.601304   -1.357106
H    -10.202962   -4.796877   -1.185689
H    -10.683971   -2.507043   -0.531046
H    -10.989748   -0.542823    0.144523
H    -11.288062    1.711860    0.983232
H     -9.326406    3.113947    1.553295
H     -7.075597    2.252729    1.243129
H     -6.110325    2.278340   -1.412083
H     -5.461799    4.649999   -1.421545
H     -2.566004    3.884248    1.688638
H     -3.223827    1.521342    1.736406
H     -2.599765    0.650566   -1.750253
H     -0.152604    0.771296   -1.739141
H      1.746411    0.142536    2.052515
H      4.208091    0.246410    2.045213
H      4.642793    2.106241   -0.683028
H      5.719445    4.215682   -1.232915
H      8.194890    4.391715   -1.240722
H      9.560487    2.441454   -0.695370
