  54
 
 N          5.1133242409       -2.9756044015       -0.6273391851
 C          5.2226777918       -1.8587705759       -0.3725083672
 C          5.4668064099       -0.5040065627       -0.0720355107
 C          4.4986360398        0.4280470763        0.1031619360
 C          3.0642121016        0.2797687186        0.0896376312
 C          2.4037975041       -0.9520459003        0.1652937446
 C          1.0283679691       -1.0226506220        0.1486358182
 C          0.2534431530        0.1373917977        0.0544924375
 C         -1.1890112245        0.1085196927        0.0267056957
 N         -1.9588768520        1.1736870235       -0.0615891203
 C         -3.2449777040        0.7407022349       -0.0638170234
 C         -4.3422345654        1.6885969988       -0.2123506010
 C         -5.5110360124        1.3531056080       -0.8937363364
 C         -6.5275753364        2.2798426612       -1.0316144200
 C         -6.3914199047        3.5523268518       -0.4998176196
 C         -5.2252066955        3.8991172111        0.1633712712
 C         -4.2059626550        2.9763867624        0.3037325927
 C         -3.2679183339       -0.6480837871        0.0373690130
 C         -4.3434978691       -1.6180680495        0.1495250268
 C         -5.5057844741       -1.3143864939        0.8603300460
 C         -6.5168603091       -2.2484707077        0.9768973928
 C         -6.3857369669       -3.4994567623        0.3936683544
 C         -5.2330429598       -3.8131243918       -0.3073281685
 C         -4.2176532146       -2.8825602359       -0.4282250087
 N         -1.9512720409       -1.0217665108        0.0814757591
 C          0.9069294129        1.3735894265       -0.0096268568
 C          2.2789771679        1.4415416866        0.0149061203
 C          6.8995666720       -0.1596597621       -0.0028254669
 C          7.8175147275       -0.7967666697       -0.8375656210
 C          9.1595070673       -0.4691287177       -0.7821929824
 C          9.6066540885        0.4897204780        0.1123315119
 C          8.7033548023        1.1182686586        0.9543138390
 C          7.3598748620        0.7973427147        0.9005850931
 H          4.8395780112        1.4465737546        0.2437779244
 H          2.9752753434       -1.8623619396        0.2510274873
 H          0.5605738856       -1.9943130881        0.2126114776
 H         -5.6167480357        0.3679349614       -1.3241794120
 H         -7.4297931155        2.0089810755       -1.5612729979
 H         -7.1892821228        4.2727084883       -0.6079789703
 H         -5.1109885957        4.8927542392        0.5725099992
 H         -3.2906461690        3.2352267827        0.8140358602
 H         -5.6033415672       -0.3442917933        1.3241005372
 H         -7.4110695822       -2.0009137680        1.5298447846
 H         -7.1782412360       -4.2270683799        0.4863926048
 H         -5.1247023179       -4.7856300643       -0.7652553733
 H         -3.3316431588       -3.1297229641       -0.9969077432
 H         -1.6250919780       -1.9691000510        0.1827596323
 H          0.3033442413        2.2648382327       -0.0770789807
 H          2.7660707132        2.4046475313       -0.0361144432
 H          7.4716852649       -1.5424032741       -1.5397729272
 H          9.8581421976       -0.9659299987       -1.4392900640
 H         10.6557544405        0.7416565727        0.1571290802
 H          9.0481994034        1.8585003378        1.6614352591
 H          6.6673464853        1.2745098947        1.5783652695
