  69
 
 N        -10.4792108314       -2.8441169062        0.4433641416
 C         -9.4485511149       -2.3392192782        0.3574871720
 C         -8.1898942849       -1.7233367160        0.2541870096
 C         -7.7407872833       -1.2326228854       -0.9797637201
 C         -6.5039753137       -0.6413768304       -1.0769053008
 C         -5.6771194616       -0.4927592372        0.0500933483
 C         -4.3783287045        0.1457646129       -0.0551835426
 C         -4.0392038655        1.2276638286        0.8201991835
 C         -4.9631718062        1.7673394781        1.7193529296
 C         -4.6056884148        2.7676197100        2.6213516839
 C         -3.3124258632        3.2465703738        2.6369766471
 C         -2.3899301099        2.7764603265        1.7065342301
 C         -2.7389980347        1.8132131660        0.7529520303
 C         -1.8253072005        1.4001150879       -0.2613176149
 C         -0.5166855528        2.0469804346       -0.3662431056
 C         -0.4123586615        3.4290227373       -0.5589780213
 C          0.8261045779        4.0377982320       -0.6594079525
 C          1.9855239593        3.2921070562       -0.5577997890
 C          1.8999532221        1.9118986102       -0.3571396271
 C          3.1107409126        1.1329636546       -0.2248455521
 N          4.3273510212        1.5970502564       -0.2679787695
 C          5.1331528015        0.5087725999       -0.0794172587
 C          6.5523204141        0.4114754735       -0.0185594235
 C          7.3714306728        1.5346293879       -0.1730216572
 C          8.7374605273        1.4122258836       -0.1025461306
 C          9.3012474009        0.1583061950        0.1253945118
 C          8.5058164198       -0.9537852465        0.2776525584
 C          7.1059195156       -0.8726202467        0.2112396131
 C          6.2486027945       -2.0362997576        0.3692866454
 C          6.7535320988       -3.3248680506        0.5996712030
 C          5.9230179636       -4.4119668131        0.7482562570
 C          4.5386004581       -4.2684731293        0.6727801118
 C          4.0006943529       -3.0257956252        0.4486027745
 C          4.8365517773       -1.9114681292        0.2980724838
 C          4.3299922855       -0.6089891926        0.0734528363
 O          3.0385097962       -0.2097416567       -0.0213668663
 C          0.6544299015        1.2969835418       -0.2718159667
 C         -2.1795418352        0.3599082596       -1.1703905876
 C         -1.3303246812       -0.0238881163       -2.2147929453
 C         -1.6337311502       -1.1030887602       -3.0400586375
 C         -2.7896436217       -1.8246683528       -2.8268731057
 C         -3.6803044080       -1.4276694703       -1.8314273639
 C         -3.4338998185       -0.3079651377       -1.0320394160
 C         -6.1463247132       -0.9802128346        1.2821439621
 C         -7.3714418218       -1.5942311781        1.3850473748
 H         -8.3779639338       -1.3198162111       -1.8481808082
 H         -6.1753458441       -0.2418320963       -2.0249841881
 H         -5.9816692296        1.4113135524        1.7154216402
 H         -5.3436649967        3.1529064837        3.3088067821
 H         -3.0123062061        3.9959657099        3.3539917230
 H         -1.3825086269        3.1627062299        1.7242299777
 H         -1.3139815150        4.0159882635       -0.6537820433
 H          0.8858839172        5.1040371134       -0.8194487727
 H          2.9601560959        3.7477276313       -0.6256566978
 H          6.8968121851        2.4883947060       -0.3465986704
 H          9.3718835530        2.2779238808       -0.2212468372
 H         10.3752898670        0.0576256272        0.1830488782
 H          8.9847162426       -1.9037427047        0.4517205540
 H          7.8176377752       -3.4831657675        0.6646821227
 H          6.3491172985       -5.3884933320        0.9257174380
 H          3.8968942264       -5.1288795720        0.7902381196
 H          2.9319614471       -2.8815141820        0.3853889381
 H          0.5971074467        0.2324445609       -0.0982403082
 H         -0.4189311351        0.5278177125       -2.3866514006
 H         -0.9525607698       -1.3771419962       -3.8319983024
 H         -3.0180802908       -2.6894466817       -3.4316648581
 H         -4.5754680191       -2.0089838142       -1.6736280153
 H         -5.5097503466       -0.9085388431        2.1517716327
 H         -7.7120342490       -1.9860465245        2.3327656293
