  88
 
 O          8.8352511213       -2.7049714766        0.4605678233
 C          8.0651028278       -1.8500848772        0.0564526373
 C          8.5693547838       -0.5448682188       -0.4506529060
 C          8.0170497729        0.0711280049       -1.5710236192
 C          8.5440775024        1.2617631253       -2.0371407807
 C          9.6180680276        1.8507013251       -1.3893134018
 C         10.1806397777        1.2357800274       -0.2824751314
 C          9.6669573110        0.0380793995        0.1774766472
 C          6.6056638660       -2.0615420145        0.0446548846
 C          6.1282261700       -3.3786053352        0.0447277065
 C          4.7812200627       -3.6459881475        0.0369737531
 C          3.8438730453       -2.6061906557        0.0566781938
 N          2.5356063229       -2.8276830159        0.0459931704
 C          1.6572888325       -1.8290269905        0.0849883425
 C          0.2546638299       -2.0873753313        0.0763166146
 C         -0.2002593463       -3.4149040535       -0.0119119862
 C         -1.5364104142       -3.7035758894       -0.0562007820
 C         -2.4698515609       -2.6581457416        0.0139801976
 N         -3.8537818987       -2.9419582772       -0.0485018294
 C         -4.6309840521       -2.4575893330       -1.0995107862
 C         -4.0991530375       -1.6924350498       -2.1323905429
 C         -4.9065278158       -1.2207090097       -3.1543345446
 C         -6.2566381747       -1.5129070233       -3.1720824290
 C         -6.7979983637       -2.3008986914       -2.1685067767
 C         -5.9970721755       -2.7758650191       -1.1454759858
 O         -6.5974822091       -3.5729696580       -0.2065180124
 C         -5.8212041786       -4.0360268998        0.8236369028
 C         -6.4432377395       -4.8213553132        1.7772434555
 C         -5.7266878942       -5.2992962941        2.8634544776
 C         -4.3916181913       -4.9698855586        2.9985655352
 C         -3.7623829470       -4.1852322210        2.0460379030
 C         -4.4574883907       -3.7255710279        0.9325606713
 C         -2.0423020391       -1.3517468319        0.1269652018
 C         -0.6806882443       -1.0262566050        0.1427163795
 C         -0.2052787062        0.3344748922        0.1985019513
 C         -1.0692958687        1.4355166551        0.2525002574
 C         -0.5903255193        2.7288617197        0.2439584831
 N         -1.4961675209        3.8141228675        0.2539081461
 C         -2.3993755302        3.9961933519       -0.7927454799
 C         -2.4537748613        3.1443614997       -1.8910693374
 C         -3.3727763553        3.3530590020       -2.9063933854
 C         -4.2461466136        4.4219198665       -2.8517523368
 C         -4.1842101619        5.3001118309       -1.7811697938
 C         -3.2683785628        5.0977044465       -0.7643649107
 O         -3.2465222306        6.0251290654        0.2441930149
 C         -2.3608002877        5.8260119139        1.2709506602
 C         -2.3669876375        6.7539100510        2.2966073471
 C         -1.5197965508        6.5994048482        3.3829513434
 C         -0.6832434850        5.5015772722        3.4448964048
 C         -0.6710114028        4.5697177876        2.4198960623
 C         -1.4892270965        4.7275369347        1.3064948893
 C          0.7909566726        2.9704700759        0.2106451062
 C          1.6571591818        1.9110763399        0.1909673425
 C          1.1864535352        0.5879903915        0.1765546129
 C          2.1288160560       -0.4875071726        0.1302890471
 N          3.4304512320       -0.2492560066        0.1226801559
 C          4.3265476354       -1.2431810981        0.0900026086
 C          5.6950576143       -1.0058337595        0.0793769303
 H          7.1916143125       -0.3950914675       -2.0892843999
 H          8.1164235328        1.7324186101       -2.9105722157
 H         10.0217145220        2.7843885989       -1.7530728801
 H         11.0244159963        1.6884360931        0.2174051034
 H         10.1007717399       -0.4605652208        1.0315279398
 H          6.8505661690       -4.1809361587        0.0392923188
 H          4.4120362785       -4.6596363042        0.0202819841
 H          0.5409106200       -4.1972613958       -0.0636307175
 H         -1.8837358099       -4.7211839047       -0.1522026003
 H         -3.0436229742       -1.4718964926       -2.1425915265
 H         -4.4674431186       -0.6247836446       -3.9393562236
 H         -6.8887523394       -1.1433880190       -3.9637157482
 H         -7.8432031583       -2.5653351428       -2.1623407126
 H         -7.4909113134       -5.0430839269        1.6521516186
 H         -6.2177383934       -5.9145172324        3.6004804233
 H         -3.8277200072       -5.3188922599        3.8496306854
 H         -2.7238943847       -3.9220535623        2.1701044871
 H         -2.7922078983       -0.5792576383        0.1937230679
 H         -2.1375476734        1.2928306783        0.2957576658
 H         -1.7656763484        2.3167449156       -1.9578921762
 H         -3.3961914001        2.6721292682       -3.7430207945
 H         -4.9659573290        4.5845560281       -3.6380160531
 H         -4.8363845900        6.1562304074       -1.7167377252
 H         -3.0465235602        7.5880335109        2.2266468910
 H         -1.5273789276        7.3294956339        4.1765148477
 H         -0.0335577976        5.3586481012        4.2943656774
 H         -0.0247222694        3.7089444184        2.4870263596
 H          1.1535803962        3.9870915988        0.1947849856
 H          2.7249031088        2.0650401804        0.1679774771
 H          6.0321056800        0.0180233931        0.1293063244
