  67
 
 C          8.9134944211        3.3336070474       -0.7635858034
 C          8.9129561663        2.0718471393       -1.3374274489
 C          7.8695682268        1.1981097582       -1.0989115805
 C          6.8098664231        1.5818332550       -0.2762333882
 C          5.6766098413        0.7017086948       -0.0445792753
 N          4.4344994178        1.1847652508       -0.0233082463
 C          3.6216256461        0.1304428474        0.1000301852
 C          2.2290472623        0.1795476353        0.1438673653
 C          1.5351605976        1.4251476393        0.0323817099
 C          0.1796705196        1.4319190281       -0.0161481966
 C         -0.5571863221        0.2104412182        0.0481211327
 C         -1.9886024157        0.1593512517        0.0418808281
 C         -2.7679345894        1.2667204473        0.4394456516
 C         -4.1389045370        1.2208880597        0.4263106115
 C         -4.8065275122        0.0671367332        0.0020912066
 N         -6.2011293276        0.0209554726       -0.0174366571
 C         -6.9818307772       -0.4053762149       -1.0742852309
 C         -6.6011666626       -0.8177869810       -2.3437766484
 C         -7.5988978559       -1.1632276863       -3.2357679809
 C         -8.9447874301       -1.0930090604       -2.8844844404
 C         -9.3308457790       -0.6566854467       -1.6312430756
 C         -8.3470995982       -0.3049253569       -0.7185683775
 C         -8.3819286135        0.2022139640        0.6262239085
 C         -9.4107407732        0.4874720868        1.5119948715
 C         -9.0879370308        0.9478902900        2.7745035035
 C         -7.7595080777        1.1071389272        3.1613518022
 C         -6.7176913939        0.8289329509        2.2966834987
 C         -7.0362820843        0.3928902592        1.0179917163
 C         -4.0531246193       -1.0410025283       -0.4003562624
 C         -2.6822856601       -0.9980886351       -0.3710471838
 C          0.2322207607       -0.9608759987        0.2029201214
 N          1.5219428388       -0.9758055795        0.2686710922
 O          4.3093596903       -1.0520814735        0.1591818195
 C          5.6309491973       -0.7082784043        0.1053772449
 C          6.6145242710       -1.7189541329        0.2917766489
 C          6.2432756943       -3.0721087588        0.1588083661
 C          7.1706995720       -4.0726967293        0.3349144063
 C          8.4862397386       -3.7628808103        0.6587761747
 C          8.8591963947       -2.4339212010        0.8214068178
 C          7.9438216860       -1.4207453047        0.6470819137
 C          6.8031684739        2.8628689163        0.2742022521
 C          7.8536245987        3.7281380336        0.0376364407
 H          9.7343603144        4.0107032145       -0.9486189416
 H          9.7284357192        1.7693399891       -1.9780201128
 H          7.8595788831        0.2235895920       -1.5647340835
 H          2.1282077670        2.3188382803       -0.0700235671
 H         -0.3503333724        2.3622312690       -0.1553362975
 H         -2.2778002203        2.1669280349        0.7765601906
 H         -4.7151137590        2.0862827950        0.7191625090
 H         -5.5619803023       -0.8550307025       -2.6327871831
 H         -7.3284342832       -1.4899813458       -4.2288140354
 H         -9.6946582417       -1.3737670908       -3.6087954083
 H        -10.3746720918       -0.5837655127       -1.3660780429
 H        -10.4400236586        0.3456388622        1.2193212599
 H         -9.8737805317        1.1778076693        3.4783110707
 H         -7.5378296699        1.4505611419        4.1608422482
 H         -5.6913164215        0.9342762925        2.6133491278
 H         -4.5629722045       -1.9414985164       -0.7097967273
 H         -2.1248743823       -1.8645962366       -0.6919986963
 H         -0.2476879513       -1.9175958011        0.3653298722
 H          5.2203604020       -3.3049988538       -0.0938983413
 H          6.8743556014       -5.1052380942        0.2207312388
 H          9.2121015395       -4.5502052019        0.7952140036
 H          9.8752583669       -2.1920154792        1.0975620641
 H          8.2348132224       -0.3951544518        0.8113696013
 H          5.9674483142        3.1579489977        0.8894792469
 H          7.8469862584        4.7152283388        0.4762000818
