  56
 
 C         -9.3299618291       -1.5485413673       -0.0953337625
 C         -8.2177046289       -0.7493392121        0.5731640324
 C         -8.0739835652        0.6381894863       -0.0480830580
 C         -7.0712049320        1.5347654157        0.6800103862
 C         -5.6354178291        1.0098986099        0.7083928188
 C         -5.0233560188        0.8436153342       -0.6881756268
 C         -3.5794470781        0.4537147767       -0.5791460768
 C         -3.2069821114       -0.8821487141       -0.4879945020
 C         -1.8816663202       -1.2387626905       -0.3518493830
 C         -0.8713350196       -0.2732674344       -0.3018337800
 C          0.5045378140       -0.7093769933       -0.1691809877
 C          1.5935672388        0.0747045280       -0.1705616843
 C          2.9706478392       -0.3562101679       -0.0491019374
 C          3.3360635706       -1.7177836256        0.1530942831
 C          4.6368090496       -2.0903118308        0.2563660838
 C          5.6881148569       -1.1403484166        0.1667046707
 C          7.0271804605       -1.4979447787        0.2642441534
 C          8.0433477625       -0.5484689332        0.1731396023
 C          9.4134950841       -0.8985458353        0.2679693391
 C         10.3860880176        0.0496501339        0.1750770367
 C         10.0460382321        1.4053918726       -0.0176328224
 C          8.7416204546        1.7820573171       -0.1136248195
 C          7.6981044087        0.8257343701       -0.0230930302
 C          6.3561851238        1.1829057476       -0.1200204996
 C          5.3404153935        0.2331097054       -0.0312605987
 C          3.9750828236        0.5807789033       -0.1319147064
 C         -1.2540667682        1.0682122809       -0.3862044280
 C         -2.5809732638        1.4195515499       -0.5201384980
 H         -9.4151402564       -2.5364637077        0.3516635626
 H        -10.2854615756       -1.0396249963        0.0133522494
 H         -9.1274225262       -1.6691454720       -1.1576663678
 H         -7.2795000423       -1.2980035484        0.4760863729
 H         -8.4346935987       -0.6461169228        1.6389988638
 H         -7.7884299479        0.5378026729       -1.0968849181
 H         -9.0487320167        1.1328073635       -0.0255909037
 H         -7.4070022427        1.6702176336        1.7114184503
 H         -7.0757268292        2.5177433920        0.2015857404
 H         -5.0213568288        1.7152783334        1.2744082095
 H         -5.5963606717        0.0543525140        1.2337686754
 H         -5.5678274228        0.0739652393       -1.2368487577
 H         -5.1152616838        1.7864423658       -1.2319743118
 H         -3.9666218497       -1.6504833311       -0.5290684429
 H         -1.6154561575       -2.2848780816       -0.2869185833
 H          0.6200402405       -1.7810657663       -0.0723686784
 H          1.4748463077        1.1446201231       -0.2820340378
 H          2.5614695246       -2.4649589790        0.2287086197
 H          4.8986950064       -3.1279406193        0.4104544232
 H          7.2880288719       -2.5370737489        0.4133411925
 H          9.6685654156       -1.9385726206        0.4156624660
 H         11.4282413397       -0.2256071515        0.2478382798
 H         10.8350075567        2.1400896131       -0.0880973207
 H          8.4754042741        2.8192525166       -0.2613732421
 H          6.0959348495        2.2221552026       -0.2688456268
 H          3.7269314244        1.6229538221       -0.2829415625
 H         -0.5077391225        1.8466083372       -0.3448437282
 H         -2.8516288042        2.4644127847       -0.5848448288
