  50
 
 C          3.6636148876       -3.0270127255        2.0369513059
 C          2.3366591439       -2.6635852680        2.2406988324
 C          1.8126911735       -1.5011525486        1.7011091621
 C          2.6458677634       -0.7042440405        0.9297199178
 C          4.0071760269       -1.0428302287        0.7646493282
 C          4.5131633922       -2.2133370923        1.3123053372
 C          4.6175983231        0.0327185435        0.0284328255
 C          5.9101128410        0.2509124163       -0.4293196984
 C          6.1784476189        1.4193389555       -1.1158556963
 C          5.1753959056        2.3557421243       -1.3493612173
 C          3.8802860886        2.1559572959       -0.9042748316
 C          3.6089610822        0.9888831068       -0.2093372230
 N          2.4012429528        0.5196559167        0.3092690511
 C          1.1796049110        1.1370861855        0.1480641081
 C          0.0000025367        0.4076450061        0.0000141867
 C         -1.1795934074        1.1370945962       -0.1480401742
 N         -2.4012358634        0.5196708632       -0.3092432495
 C         -2.6458719817       -0.7042092038       -0.9297270367
 C         -1.8126989882       -1.5011092322       -1.7011284931
 C         -2.3366800167       -2.6635162490       -2.2407601165
 C         -3.6636447155       -3.0269270776       -2.0370400684
 C         -4.5131874121       -2.2132608272       -1.3123768954
 C         -4.0071865958       -1.0427801714       -0.7646773262
 C         -4.6175992904        0.0327559011       -0.0284346440
 C         -5.9101137196        0.2509554175        0.4293155250
 C         -6.1784359924        1.4193662463        1.1158828061
 C         -5.1753717968        2.3557478290        1.3494230329
 C         -3.8802611070        2.1559556822        0.9043419438
 C         -3.6089491996        0.9888979140        0.2093719271
 N         -1.1731443070        2.4758819615       -0.1172073362
 C          0.0000052035        3.0579861478        0.0000670454
 N          1.1731572912        2.4758741879        0.1172766857
 H          4.0347731358       -3.9438207833        2.4696058444
 H          1.6985049210       -3.2954494669        2.8403604144
 H          0.7914755341       -1.2246269310        1.9127106756
 H          5.5526825175       -2.4714566287        1.1814392738
 H          6.6843330077       -0.4793595628       -0.2502000806
 H          7.1774675007        1.6116656600       -1.4778539224
 H          5.4112025004        3.2610366331       -1.8889142882
 H          3.1086160710        2.8874814726       -1.0793272242
 H         -0.0000016459       -0.6667152584        0.0000161148
 H         -0.7914753451       -1.2245955403       -1.9127069351
 H         -1.6985286015       -3.2953739819       -2.8404314621
 H         -4.0348135644       -3.9437149690       -2.4697279288
 H         -5.5527121364       -2.4713675426       -1.1815304003
 H         -6.6843432224       -0.4793005158        0.2501706788
 H         -7.1774554971        1.6116969918        1.4778800616
 H         -5.4111695702        3.2610301933        1.8890004902
 H         -3.1085819206        2.8874651781        1.0794176341
 H          0.0000175668        4.1412434192       -0.0000219599
