  78
 
 C         -3.7984204421        5.5809085000       -1.7999100180
 C         -3.7516453147        5.1530318769       -0.3254055571
 C         -5.1810362283        4.9949917969        0.2145399660
 C         -3.0614053131        6.2636555144        0.4723586911
 C         -3.0283098622        3.8190291751       -0.2190130838
 C         -3.5406133610        2.7021104172       -0.8770442137
 C         -2.9218897518        1.4709338209       -0.8130208610
 C         -1.7541375413        1.3058098132       -0.0706359206
 N         -1.1247982782        0.0562190421        0.0152463797
 C          0.2680577946       -0.0243230887        0.0130440334
 C          0.9299600270       -0.9724857282        0.7964683283
 C          2.3067860507       -1.0446433029        0.7883505866
 C          3.0810014620       -0.1853591667        0.0047035753
 B          4.6390395652       -0.2741371600       -0.0014359955
 O          5.4425903211        0.4806423531       -0.8120000057
 C          6.7947648504        0.0285313241       -0.6722465046
 C          7.7328500686        1.2336213575       -0.6438167593
 C          7.1100670051       -0.8231254995       -1.9091170596
 C          6.7521913903       -0.8127372411        0.6561122706
 C          7.1654067371       -0.0008599863        1.8909127565
 C          7.5524730810       -2.1132487614        0.6229037920
 O          5.3593780155       -1.1138989044        0.8037309555
 C          2.4054730854        0.7579090552       -0.7735903488
 C          1.0295417335        0.8435086206       -0.7731981303
 C         -1.9000410967       -1.1076154949        0.0969901683
 C         -3.0968442600       -1.1213583602        0.8112630539
 C         -3.8640050666       -2.2662346817        0.8679635267
 C         -3.4765887501       -3.4449236172        0.2327774821
 C         -4.3646235156       -4.6766765788        0.3239606171
 C         -4.5406226329       -5.0644134140        1.7998211984
 C         -3.7798405878       -5.8819802947       -0.4188078254
 C         -5.7329276398       -4.3513466339       -0.2940335492
 C         -2.2758558455       -3.4218482013       -0.4677959998
 C         -1.5025689707       -2.2782933264       -0.5427464760
 C         -1.2322762679        2.4134624505        0.5911865372
 C         -1.8580858300        3.6435932936        0.5109852438
 H         -2.7890489436        5.6808231931       -2.1946083435
 H         -4.3304223796        4.8532803824       -2.4066992477
 H         -4.3032661929        6.5400491047       -1.8959393097
 H         -5.7427279061        4.2619126711       -0.3578192486
 H         -5.1569890451        4.6710663259        1.2533475741
 H         -5.7085285431        5.9452434488        0.1613661287
 H         -2.0514294817        6.4378693786        0.1081496864
 H         -3.0216773058        6.0179983775        1.5312714574
 H         -3.6220802000        7.1900289034        0.3629602109
 H         -4.4424439823        2.7870315466       -1.4646415395
 H         -3.3410581311        0.6263701692       -1.3409164711
 H          0.3523131581       -1.6450097419        1.4145026028
 H          2.8092463713       -1.7759151386        1.4045517246
 H          8.7517924418        0.9087473923       -0.4546213281
 H          7.6946082338        1.7313785823       -1.6099073953
 H          7.4317915006        1.9489696167        0.1148705874
 H          6.4351624443       -1.6741301325       -1.9639980677
 H          6.9540877853       -0.2139521260       -2.7969268422
 H          8.1387185060       -1.1688876311       -1.8922860376
 H          8.2256129818        0.2302580121        1.8686246000
 H          6.5878562353        0.9188218738        1.9489033546
 H          6.9483231127       -0.5893576084        2.7798183131
 H          7.1707197237       -2.7910816192       -0.1339126933
 H          8.5997668322       -1.9017406283        0.4278110063
 H          7.4654183682       -2.6040568625        1.5893779641
 H          2.9845809407        1.4276951472       -1.3924358029
 H          0.5288001512        1.5783773871       -1.3873108621
 H         -3.4225703696       -0.2265296325        1.3219433943
 H         -4.7849040902       -2.2326051672        1.4306610130
 H         -3.5723952877       -5.2677840357        2.2534374345
 H         -5.1549463111       -5.9588830197        1.8811404534
 H         -5.0209737445       -4.2698587114        2.3641682232
 H         -2.8144206268       -6.1656394228       -0.0057285268
 H         -4.4521304398       -6.7317051479       -0.3160462229
 H         -3.6661075655       -5.6707860471       -1.4797404204
 H         -5.6141395199       -4.0529886951       -1.3340297708
 H         -6.3786758883       -5.2263557230       -0.2572217691
 H         -6.2251925709       -3.5420288242        0.2383161829
 H         -1.9229155900       -4.3005382206       -0.9827039617
 H         -0.5802030213       -2.2893715667       -1.1058296946
 H         -0.3287305948        2.3065231058        1.1744886733
 H         -1.4138666862        4.4683131149        1.0441081162
