  107
 
 C         -4.0846350247        5.4964875131        1.0508618717
 C         -2.9320496266        5.4169303291        0.0383700748
 C         -1.5865215634        5.5298320091        0.7713263059
 C         -3.0547254620        6.6079706213       -0.9170233014
 C         -2.9937280939        4.0752982813       -0.6771143495
 C         -3.1397860858        3.9601138831       -2.0562520684
 C         -3.1935718867        2.7267635256       -2.6879574307
 C         -3.0969697260        1.5756403643       -1.9275701414
 C         -2.9427938727        1.6764758335       -0.5380246003
 C         -2.8984502484        2.9043381641        0.0792073264
 C         -2.8769280471        0.2998600137        0.0981935467
 C         -4.0397082511        0.1890341437        1.0647301600
 C         -5.2789657739       -0.2738462362        0.6407802160
 C         -6.3526621177       -0.3129754158        1.5135045394
 C         -6.2062230173        0.1193867528        2.8202949850
 C         -4.9774543148        0.5935828743        3.2480435573
 C         -3.9040327442        0.6309844567        2.3765014701
 C         -1.5440407287       -0.0125841468        0.7515378739
 C         -0.3955865119        0.7044994802        0.4062536776
 C          0.8458722755        0.3979944045        0.9300663451
 C          0.9396680081       -0.6720560595        1.8069723064
 C         -0.2133296332       -1.4007401843        2.1761350916
 C         -1.4501081739       -1.0703275239        1.6428828059
 C          0.2162529770       -2.3996669027        3.1148467339
 C         -0.4429634379       -3.4108276509        3.8018684206
 C          0.2914571418       -4.2350973379        4.6313710915
 C          1.6684513234       -4.0700083781        4.7671326064
 C          2.3461059670       -3.0707513149        4.0942714293
 C          1.6098601320       -2.2235197247        3.2779816025
 N          2.0347849022       -1.1757463888        2.4833432438
 C          3.3510571730       -0.7036212027        2.3873412351
 C          4.0746805312       -0.4073189132        3.5398944281
 C          5.3749206950        0.0523857104        3.4357745930
 C          5.9641373875        0.2260849728        2.1965465169
 C          5.2402390897       -0.0566236007        1.0407841560
 N          5.8294203828        0.1167280006       -0.2198831226
 C          6.4915627876        1.2500852783       -0.6514275269
 C          6.6712009831        2.4678775080       -0.0101609192
 C          7.3589192383        3.4583354199       -0.6854853410
 C          7.8519777700        3.2539171777       -1.9727641217
 C          7.6550423326        2.0531394300       -2.6254637649
 C          6.9671396185        1.0418058763       -1.9667073153
 C          6.5739318797       -0.2894683347       -2.3367394294
 C          6.7657882498       -1.0593531410       -3.4770439862
 C          6.2640477791       -2.3455475421       -3.4996582223
 C          5.5908120156       -2.8705493425       -2.3983601082
 C          5.3883125027       -2.1245488414       -1.2526240500
 C          5.8708951186       -0.8233586056       -1.2318573545
 C          3.9342081796       -0.5231826616        1.1379790786
 C         -3.0138001332       -0.5952509905       -1.1207332635
 C         -3.0126550685       -1.9690741915       -1.1749493872
 C         -3.1337612480       -2.6248747994       -2.4026316110
 C         -3.1452819984       -4.1464420926       -2.4215156953
 C         -3.2699433838       -4.7238987052       -3.8348482717
 C         -1.8365295044       -4.6662354983       -1.8074242148
 C         -4.3415220779       -4.6434105316       -1.5952449376
 C         -3.2448281228       -1.8526922403       -3.5550442965
 C         -3.2407128873       -0.4665478257       -3.5125304257
 C         -3.1256794443        0.1696486044       -2.2898861376
 H         -4.0147448948        4.7087933065        1.7961380643
 H         -4.0658724656        6.4554420683        1.5648398748
 H         -5.0408747971        5.3962641128        0.5405801034
 H         -1.5183540089        6.4876004022        1.2832645909
 H         -1.4684807327        4.7402087553        1.5084902291
 H         -0.7643953309        5.4586380760        0.0613690079
 H         -2.2421375087        6.6161429074       -1.6401919462
 H         -3.0064075721        7.5343451779       -0.3477503957
 H         -4.0045821263        6.5890977907       -1.4466973315
 H         -3.2171450658        4.8435872339       -2.6690061237
 H         -3.3114571995        2.6725229930       -3.7607142795
 H         -2.7858262588        2.9523574507        1.1514679801
 H         -5.4052100683       -0.6083572388       -0.3788319646
 H         -7.3082465021       -0.6815079221        1.1685113687
 H         -7.0443555643        0.0889119847        3.5013898666
 H         -4.8536361490        0.9367985967        4.2654700663
 H         -2.9472428165        0.9962175753        2.7218124010
 H         -0.4796059845        1.5274966693       -0.2879029014
 H          1.7111898957        0.9853873190        0.6625235472
 H         -2.3299894481       -1.6240313565        1.9350872934
 H         -1.5078172594       -3.5475301179        3.6843164183
 H         -0.2020604650       -5.0262625780        5.1766807967
 H          2.2196357485       -4.7401218087        5.4108455512
 H          3.4156702794       -2.9639050497        4.1945352103
 H          3.6104840372       -0.5267956393        4.5066947080
 H          5.9359424397        0.2770042287        4.3304305892
 H          6.9850657807        0.5662418394        2.1168113390
 H          6.2790699427        2.6433394630        0.9802862857
 H          7.5146921984        4.4137524828       -0.2057677594
 H          8.3870605622        4.0519674550       -2.4663781060
 H          8.0232773196        1.9005119398       -3.6290583863
 H          7.3007275020       -0.6574409954       -4.3246041171
 H          6.4004571706       -2.9598767272       -4.3776717730
 H          5.2209455607       -3.8848249696       -2.4396676524
 H          4.8805335963       -2.5495339749       -0.3998896196
 H          3.3726513035       -0.7464498300        0.2436853252
 H         -2.9220555116       -2.5343377572       -0.2602505458
 H         -3.2703778739       -5.8110186101       -3.7822577433
 H         -4.1991071327       -4.4110818283       -4.3060504225
 H         -2.4323740822       -4.4184172489       -4.4581406470
 H         -1.8193168928       -5.7540673986       -1.8293887041
 H         -1.7245905624       -4.3452120662       -0.7752529533
 H         -0.9830004864       -4.2955853321       -2.3721490889
 H         -4.2740929224       -4.3138922053       -0.5618939901
 H         -4.3776409354       -5.7309076296       -1.6047879586
 H         -5.2716524861       -4.2630422917       -2.0137819465
 H         -3.3376987570       -2.3269558580       -4.5186313559
 H         -3.3278517076        0.1034753025       -4.4263807999
