  94
 
 N          2.8062267572       -3.2382363656       -1.1848463109
 C          2.2372402273       -2.3147204859       -0.7825254816
 C          1.5515480207       -1.1944573672       -0.3225196482
 C          2.2495765947       -0.0250270535       -0.0018656195
 N          3.6477042753       -0.0394246387       -0.0032691720
 C          4.4460173982       -0.8806711403        0.7465667237
 C          4.0813651750       -1.8349030335        1.6847152306
 C          5.0916547615       -2.5304050622        2.3231240375
 C          6.4315121273       -2.2737017048        2.0477612435
 C          6.8006135744       -1.3010148519        1.1335920558
 C          5.8040720146       -0.5944433503        0.4795004092
 C          5.8140686288        0.4724773192       -0.4889821164
 C          6.8236604465        1.1591984483       -1.1442180413
 C          6.4728524346        2.1392163278       -2.0577606278
 C          5.1380080940        2.4224155465       -2.3314965157
 C          4.1148924688        1.7471068344       -1.6918493041
 C          4.4616406289        0.7857433198       -0.7542002628
 C          1.5767990288        1.1587196035        0.3202273755
 C          2.2868782468        2.2642168237        0.7789443084
 N          2.8760811467        3.1754493162        1.1801382560
 C          0.1294282551        1.1758998624        0.3072515072
 N         -0.5410926656        2.3430301493        0.6936228999
 C         -0.4344305524        3.5698777243        0.0744416029
 C          0.3526350112        3.9457023069       -1.0069861004
 C          0.2515699418        5.2470510535       -1.4589122504
 C         -0.6194050618        6.1547398661       -0.8599873490
 C         -1.4198850293        5.7814983570        0.2061516070
 C         -1.3321623773        4.4819257894        0.6793869468
 C         -1.9991561790        3.7589947232        1.7292203948
 C         -2.9646092840        4.0998647525        2.6635426278
 C         -3.3694820737        3.1426588754        3.5786736160
 C         -2.8028689074        1.8708305103        3.5863658211
 C         -1.8391515308        1.5086493602        2.6637205397
 C         -1.4642950384        2.4492762445        1.7145870608
 C         -0.5705410322        0.0045739427        0.0009167292
 N         -1.9728843602        0.0193021840        0.0025607596
 C         -2.7719382105        0.8784889344       -0.7255599010
 C         -2.4117074681        1.8436370525       -1.6556766782
 C         -3.4227758678        2.5587639363       -2.2700170843
 C         -4.7618614380        2.3082798777       -1.9851948819
 C         -5.1277646606        1.3162758162       -1.0918646463
 C         -4.1298231532        0.5909302747       -0.4602514308
 C         -4.1402164514       -0.5012898270        0.4769076670
 C         -5.1516495874       -1.2023868136        1.1144352829
 C         -4.8045298861       -2.2022334494        2.0065150345
 C         -3.4702156572       -2.4841133010        2.2843542199
 C         -2.4458060405       -1.7937187412        1.6638512585
 C         -2.7880917607       -0.8208029475        0.7350558854
 C          0.1041237910       -1.1811633915       -0.3067292356
 N         -0.5916933420       -2.3335422900       -0.6926801999
 C         -0.5101455760       -3.5630114969       -0.0749084438
 C          0.2703836311       -3.9566643391        1.0049134137
 C          0.1419877545       -5.2559419824        1.4558877887
 C         -0.7491210174       -6.1442156120        0.8574735681
 C         -1.5426986663       -5.7530275584       -0.2073866203
 C         -1.4277794212       -4.4552170657       -0.6796113711
 C         -2.0802202859       -3.7174515598       -1.7282711915
 C         -3.0530936228       -4.0371761848       -2.6623900898
 C         -3.4381464080       -3.0709068255       -3.5765586947
 C         -2.8451052788       -1.8111718041       -3.5833269507
 C         -1.8735072034       -1.4701118860       -2.6609034997
 C         -1.5178964528       -2.4193002828       -1.7128830641
 H          3.0444556334       -2.0294178674        1.9124500920
 H          4.8339384940       -3.2846135722        3.0511385559
 H          7.1933454054       -2.8380692503        2.5636356434
 H          7.8404940436       -1.0925936190        0.9354472681
 H          7.8594406789        0.9301303645       -0.9473503987
 H          7.2450920739        2.6884502853       -2.5744929257
 H          4.8943125773        3.1815306193       -3.0592422117
 H          3.0818119940        1.9623192738       -1.9183472893
 H          1.0272487132        3.2475444161       -1.4794023206
 H          0.8591613460        5.5650199067       -2.2927585257
 H         -0.6701532382        7.1642020234       -1.2391244319
 H         -2.1002369467        6.4855228035        0.6599253925
 H         -3.3859894779        5.0931503463        2.6787092794
 H         -4.1235767611        3.3885299812        4.3108640762
 H         -3.1162863046        1.1528935365        4.3291606600
 H         -1.3824624701        0.5314921871        2.6960738890
 H         -1.3784230449        2.0303465840       -1.9047224180
 H         -3.1638902737        3.3232242124       -2.9869958279
 H         -5.5243743270        2.8886173234       -2.4821498078
 H         -6.1670942946        1.1054094486       -0.8933330735
 H         -6.1867824072       -0.9670318755        0.9214666750
 H         -5.5778598551       -2.7638740790        2.5082090463
 H         -3.2255944360       -3.2536981216        3.0008603244
 H         -1.4159167071       -2.0046105213        1.9075628951
 H          0.9607981747       -3.2737175503        1.4767836749
 H          0.7438604694       -5.5876628720        2.2885271535
 H         -0.8209172176       -7.1527082487        1.2358022102
 H         -2.2384228775       -6.4419490510       -0.6610191019
 H         -3.4952669993       -5.0213710860       -2.6781880568
 H         -4.1973986984       -3.3003005070       -4.3087768254
 H         -3.1437831134       -1.0861202148       -4.3252881580
 H         -1.3965354416       -0.5026762673       -2.6925635687
