  75
 
 C          3.1455427850        1.0576946338       -2.1617539425
 C          3.5138853537        1.6662470605       -0.7931574935
 C          4.2604747281        2.9772918688       -1.0388720276
 C          4.3467403552        0.6564696205       -0.0254580730
 C          5.7150798741        0.7559569509        0.1631780097
 C          6.4134059195       -0.2146232328        0.8631908406
 C          5.7392181001       -1.2889352847        1.4168793678
 C          4.3729344166       -1.4033648325        1.2523945933
 C          3.6773075057       -0.4554567734        0.5070297235
 N          2.2870273901       -0.5126924239        0.3662852150
 C          1.5531895749       -1.6417920802        0.0482723170
 C          2.0608403138       -2.9108111226       -0.1726702655
 C          1.1763179900       -3.9525711412       -0.4519754119
 C         -0.2128425763       -3.7200758402       -0.5400721588
 C         -1.1759333070       -4.6981677038       -0.7971017668
 C         -2.5361903777       -4.3663160658       -0.8753123651
 C         -2.9497053086       -3.0665038254       -0.7365131672
 C         -2.0031260742       -2.0381395954       -0.5452950357
 N         -2.4379572163       -0.7125964959       -0.3488587421
 C         -3.0650215082       -0.3928622665        0.8477489561
 C         -3.1277896227       -1.3401032972        1.8745125889
 C         -3.7024356477       -1.0283081599        3.0879103954
 C         -4.2033774347        0.2431408968        3.3064495319
 C         -4.1358899286        1.1889046473        2.2974154084
 C         -3.5812056366        0.8952794842        1.0616304432
 C         -3.5835437788        1.8719888305       -0.0933587210
 C         -4.8091837534        1.5298089752       -0.9731241067
 C         -3.7130572998        3.3273980379        0.3590400715
 C         -2.3567405778        1.6285639561       -0.9481031964
 C         -1.7296615002        2.6333379315       -1.6645083128
 C         -0.7488365115        2.3504186697       -2.6007137545
 C         -0.4387369297        1.0331906731       -2.8883052401
 C         -1.0314962571        0.0150510541       -2.1739712618
 C         -1.9347660456        0.3012536513       -1.1450974080
 C         -0.6268749799       -2.3555156943       -0.4133348988
 N          0.2433946456       -1.3881745574       -0.1772480343
 C          1.6361340854        0.7151925887        0.5347887666
 C          0.4541391086        0.8067676262        1.2643589958
 C         -0.1629608859        2.0304337693        1.4263227956
 C          0.4114604227        3.1674256795        0.8874598274
 C          1.6064353457        3.0811784679        0.1890366797
 C          2.2348861374        1.8632936298       -0.0003649432
 H          4.0500231131        0.8366065446       -2.7253552366
 H          2.5406590438        1.7642621386       -2.7253932626
 H          2.5762248916        0.1397113766       -2.0446753873
 H          3.6347512791        3.6635986224       -1.6035745841
 H          4.5438274758        3.4468911050       -0.0995088796
 H          5.1546186943        2.7960024419       -1.6300823711
 H          6.2597627483        1.5951855652       -0.2380780350
 H          7.4816306754       -0.1212654272        0.9879467385
 H          6.2738296601       -2.0303348259        1.9916671338
 H          3.8349887897       -2.2077904033        1.7291789403
 H          3.1184235223       -3.1059045623       -0.1208038425
 H          1.5502903150       -4.9576365988       -0.5705122542
 H         -0.8592007334       -5.7170110255       -0.9614673250
 H         -3.2594566757       -5.1456495411       -1.0639289776
 H         -3.9935046884       -2.7991309868       -0.8069441921
 H         -2.7052374224       -2.3200925690        1.7182076032
 H         -3.7447649452       -1.7741421335        3.8672601322
 H         -4.6443291816        0.5013628932        4.2572458542
 H         -4.5321922657        2.1720199961        2.4924746091
 H         -4.7603909094        0.4991887073       -1.3168996253
 H         -4.8380126657        2.1816908282       -1.8436170360
 H         -5.7260779833        1.6609987598       -0.4020568876
 H         -2.8674374525        3.6180888962        0.9774253076
 H         -4.6319687971        3.4721100242        0.9204584192
 H         -3.7652486331        3.9866834219       -0.5027699497
 H         -2.0066191091        3.6630574551       -1.5104808162
 H         -0.2680301436        3.1565931064       -3.1341696698
 H          0.2632278089        0.7948213090       -3.6731144295
 H         -0.8068585085       -1.0084292337       -2.4211577937
 H          0.0329633862       -0.0768574549        1.7163460802
 H         -1.0820439262        2.0915422369        1.9904333442
 H         -0.0603366189        4.1301632748        1.0171440703
 H          2.0358649941        3.9843386205       -0.2136787929
