  63
 
 C          1.6005323669       -1.4923017939       -2.2270799329
 C          0.3289969160       -2.1993128648       -2.6802789728
 C         -0.8678594780       -1.8088480441       -1.8174859395
 C         -2.1660080419       -2.4544232513       -2.2974499104
 C         -3.3704244263       -2.0767096543       -1.4325607437
 C         -3.4151177525       -2.8487718928       -0.1128203748
 C         -4.5315682079       -2.3656249615        0.8208952586
 C         -4.0548637436       -1.3321388341        1.8555656051
 N         -3.4482180123       -0.1833102243        1.2524011528
 C         -4.1582996927        0.8218628637        0.5976191422
 C         -5.5153356732        0.9957372074        0.5006037488
 C         -5.9837737773        2.1226178175       -0.2339388144
 C         -5.1009771889        2.9961813347       -0.8192965942
 C         -3.7156835081        2.8217294136       -0.7214891147
 C         -3.2330564438        1.7192680213        0.0027851191
 C         -1.9387402441        1.2420672715        0.3096562224
 C         -0.6497430227        1.6582945972       -0.0078571771
 C          0.4394507865        0.9106488758        0.4401975656
 N          1.6830736351        1.3369734267        0.0731023668
 C          2.9213902158        0.7888948854        0.2425490928
 N          3.9134254508        1.5345244097       -0.2798936215
 C          5.1216739089        1.0240973455       -0.1472531065
 O          6.1672935261        1.6823933623       -0.6271054951
 C          5.8915203433        2.9169990398       -1.2614374819
 N          5.4103449528       -0.1357066480        0.4445626321
 C          4.3539689977       -0.7868598729        0.9251445368
 O          4.5371095842       -1.9502596974        1.5313841526
 C          5.8753616212       -2.4080430617        1.6138268498
 N          3.0970343407       -0.3787230145        0.8555277157
 C          0.2553776159       -0.2490911616        1.2594907833
 C         -1.0243995148       -0.6752458485        1.5858813258
 C         -2.1132925579        0.0329267285        1.1093178965
 H          2.4531344840       -1.8143384129       -2.8213302236
 H          1.4945325510       -0.4147268519       -2.3369437965
 H          1.8076573704       -1.7064113308       -1.1807974628
 H          0.4753519381       -3.2805516391       -2.6256884904
 H          0.1244152100       -1.9462088422       -3.7236821884
 H         -0.9838859008       -0.7224822062       -1.8328749569
 H         -0.6625896636       -2.0985908427       -0.7862926964
 H         -2.0536010592       -3.5413467458       -2.3093353414
 H         -2.3545773910       -2.1328663962       -3.3245442791
 H         -4.2892856830       -2.2881092492       -1.9858903468
 H         -3.3436427863       -1.0028918616       -1.2442599725
 H         -3.5703821076       -3.9055930858       -0.3411901508
 H         -2.4538591966       -2.7645300342        0.3942737623
 H         -4.9443100078       -3.2080263388        1.3790354012
 H         -5.3369755442       -1.9332899760        0.2249338271
 H         -3.3255697353       -1.7955172655        2.5233953105
 H         -4.9102882379       -1.0032194103        2.4553094968
 H         -6.2222664612        0.3234246520        0.9605995393
 H         -7.0475884563        2.2771048639       -0.3218890213
 H         -5.4809578838        3.8429502259       -1.3729537021
 H         -3.0347635693        3.5132922478       -1.1904626086
 H         -0.4947403930        2.5389213887       -0.6140337130
 H          1.7253020286        2.2014823784       -0.4552074138
 H          5.4102311522        3.6087834557       -0.5667296233
 H          5.2346167072        2.7702917387       -2.1215444202
 H          6.8550209991        3.3077660758       -1.5810966327
 H          5.8288959027       -3.3622922907        2.1342312558
 H          6.4920241716       -1.6974603628        2.1671863086
 H          6.3011569473       -2.5336137010        0.6166748109
 H          1.1247873479       -0.7779789967        1.6005335330
 H         -1.1451662031       -1.5510896275        2.2055891362
