  70
 
 C          8.0839868767        3.4315148164        0.5941640304
 C          6.7281866523        3.6735531296        0.8047489592
 C          5.7750735902        2.7046638360        0.5566644633
 C          6.2091749957        1.4759463274        0.0799447009
 C          7.5849092265        1.2132717391       -0.1142456612
 C          8.5239601593        2.2036226029        0.1423101632
 C          7.6809948123       -0.1479866443       -0.5610031018
 C          8.7459743587       -0.9619611229       -0.9239735248
 C          8.4815569982       -2.2521449979       -1.3374315844
 C          7.1742236755       -2.7291153915       -1.4049706123
 C          6.0982976279       -1.9389580118       -1.0488127396
 C          6.3594816820       -0.6483566315       -0.6111391309
 N          5.4809822955        0.3433019870       -0.2233847303
 C          4.0856958272        0.2192378429       -0.1493099963
 C          3.2760839316        1.1659572487       -0.7814375600
 C          1.8965946404        1.0846043566       -0.7255354435
 C          1.3286717699        0.0288612942       -0.0369400313
 C          2.1465233231       -0.9545450508        0.6073740650
 C          3.5237530801       -0.8441615232        0.5504327653
 C          1.2613920612       -1.9195413549        1.2373346766
 C          1.2408223395       -3.0840229540        1.9988454683
 C         -0.0000126666       -3.6222205480        2.3502570790
 C         -1.2408438799       -3.0840095874        1.9988525304
 C         -1.2614053920       -1.9195276938        1.2373419763
 C         -2.1465298413       -0.9545217220        0.6073866100
 C         -3.5237587149       -0.8441231152        0.5504535790
 C         -4.0856940714        0.2192822581       -0.1492860042
 N         -5.4809796339        0.3433618079       -0.2233517686
 C         -6.2091579055        1.4760140937        0.0799827107
 C         -5.7750397263        2.7047274836        0.5566978193
 C         -6.7281405768        3.6736270132        0.8047892252
 C         -8.0839450587        3.4316027907        0.5942155648
 C         -8.5239349177        2.2037148035        0.1423663704
 C         -7.5848964837        1.2133538591       -0.1141962430
 C         -7.6810001293       -0.1479039596       -0.5609514907
 C         -8.7459913025       -0.9618675908       -0.9239121314
 C         -8.4815910026       -2.2520546578       -1.3373711210
 C         -7.1742632506       -2.7290388175       -1.4049207872
 C         -6.0983258976       -1.9388924159       -1.0487727040
 C         -6.3594926901       -0.6482879031       -0.6110980178
 C         -3.2760756099        1.1659925766       -0.7814187627
 C         -1.8965868597        1.0846246941       -0.7255247498
 C         -1.3286713837        0.0288756817       -0.0369323645
 N         -0.0000009642       -0.2995329251        0.1765702602
 C         -0.0000049711       -1.4374279059        0.9207660882
 H          8.7975494691        4.2161595047        0.7973828772
 H          6.4153794507        4.6393358056        1.1737508707
 H          4.7282696401        2.8958582657        0.7396543872
 H          9.5757805027        2.0107711359       -0.0061499279
 H          9.7577539838       -0.5872520942       -0.8858191764
 H          9.2955150874       -2.9022603580       -1.6220320789
 H          6.9974742021       -3.7384530669       -1.7466028755
 H          5.0875998870       -2.3121474934       -1.1205202248
 H          3.7441720481        1.9674501229       -1.3323520187
 H          1.2837445134        1.8242727286       -1.2166193766
 H          4.1562204067       -1.5617600759        1.0502081029
 H          2.1474700076       -3.5737082501        2.3201890900
 H         -0.0000158596       -4.5268202590        2.9417775525
 H         -2.1474949861       -3.5736849145        2.3202016399
 H         -4.1562308711       -1.5617146216        1.0502329211
 H         -4.7282322838        2.8959111794        0.7396789642
 H         -6.4153201850        4.6394067601        1.1737876165
 H         -8.7974977533        4.2162551039        0.7974397022
 H         -9.5757585160        2.0108741465       -0.0060847267
 H         -9.7577666358       -0.5871478108       -0.8857498047
 H         -9.2955583208       -2.9021617346       -1.6219641278
 H         -6.9975272632       -3.7383786921       -1.7465535168
 H         -5.0876327028       -2.3120926340       -1.1204882976
 H         -3.7441582173        1.9674903180       -1.3323308179
 H         -1.2837315979        1.8242862157       -1.2166125988
