  67
 
 C          2.6272422277        1.1682630612       -0.2986958856
 C          2.0500436453        0.8449747492        1.0848193185
 O          3.0267826017        0.2879529376        1.9833949796
 C          4.2170569540        0.9481088128        2.1701002963
 O          5.1939245662        0.5402608361        1.2101619033
 C          5.8121452678        1.4847041157        0.4848789799
 O          5.6141184309        2.6692052964        0.6205417898
 C          6.7619869365        0.9079772518       -0.4936545041
 C          6.8737392211       -0.4669367397       -0.6854015368
 C          7.7715496698       -0.9590755060       -1.6139246008
 C          8.5593888019       -0.0890055560       -2.3516871922
 C          8.4490810457        1.2800669672       -2.1648469269
 C          7.5522763313        1.7794086888       -1.2401111428
 C          1.4158267461        2.1052954892        1.7166146552
 C          0.0121335268        2.3881015887        1.2711920519
 C         -0.8298756700        1.4257212241        0.8884141393
 C         -0.3339104847        0.0785571069        0.8279079631
 C          1.0029373644       -0.2187048580        0.9219017161
 C          1.1445216777       -1.6161667061        0.7088903594
 C          2.2356321133       -2.4848781483        0.6991939620
 C          2.0051053023       -3.8249248509        0.4885106383
 C          0.7100504822       -4.3174655508        0.3085968734
 C         -0.3871613584       -3.4809735733        0.3153975550
 C         -0.1625216307       -2.1223709229        0.4929331381
 N         -1.0537492065       -1.0711624036        0.5628387445
 C         -2.4399939437       -1.1538237912        0.4331914224
 C         -3.2673548040       -0.5187483955        1.3617025389
 C         -4.6400233561       -0.5987647814        1.2301828811
 C         -5.1838493485       -1.3197345552        0.1834453841
 S         -6.9694269990       -1.3776923047        0.0013017599
 O         -7.2946414778       -2.3730931925       -0.9853578729
 O         -7.5669610134       -1.4783550516        1.3062074016
 C         -7.3286967699        0.2508294030       -0.6699301420
 C         -7.8285031043        1.2354310738        0.1589112220
 C         -8.0636037460        2.4988628324       -0.3584363396
 C         -7.7917596550        2.7590927656       -1.6924086272
 C         -7.2907908871        1.7617005289       -2.5153014724
 C         -7.0548357011        0.4977271950       -2.0011976708
 C         -4.3781207821       -1.9551097300       -0.7418722368
 C         -3.0039322218       -1.8720444452       -0.6220445267
 H          1.8122488962        1.4659141003       -0.9546256459
 H          3.1139958875        0.2898620118       -0.7167726284
 H          3.3415391994        1.9871730584       -0.2503161347
 H          4.1301770832        2.0428804638        2.1354278884
 H          4.5957886121        0.6301893904        3.1493428844
 H          6.2566347718       -1.1357286883       -0.1066239750
 H          7.8593312089       -2.0248398944       -1.7644359059
 H          9.2606626101       -0.4794370993       -3.0744569392
 H          9.0632367564        1.9558199409       -2.7410276220
 H          7.4476658556        2.8413545556       -1.0769081135
 H          2.0426984412        2.9755035462        1.5118258868
 H          1.4017548816        1.9580120239        2.8040075828
 H         -0.3126954244        3.4156475037        1.3340886630
 H         -1.8480019061        1.6354233874        0.5974004596
 H          3.2280484818       -2.1008011959        0.8727952135
 H          2.8338377292       -4.5174834576        0.4745127271
 H          0.5645630019       -5.3780527721        0.1669543201
 H         -1.3851030267       -3.8762396130        0.2001019439
 H         -2.8249004427        0.0150736449        2.1888362764
 H         -5.2994094309       -0.1320468265        1.9447194896
 H         -8.0402844567        0.9903036424        1.1879141231
 H         -8.4601411241        3.2772888747        0.2757384698
 H         -7.9765101225        3.7437770522       -2.0954355545
 H         -7.0874652972        1.9690270000       -3.5550390905
 H         -6.6795709125       -0.3039181977       -2.6176750897
 H         -4.8436351126       -2.5128173678       -1.5392629462
 H         -2.3602959128       -2.3450929454       -1.3474452794
