  65
 
 C         -6.7830548002        0.5485656073        2.0009805237
 C         -5.4657638996        0.1822940349        1.3181939194
 C         -4.4197302860       -0.0983603532        2.4162065022
 C         -5.5926314727       -1.0431811085        0.4304259450
 C         -6.6721807471       -1.9122975274        0.4399047628
 C         -6.7151460091       -3.0022282699       -0.4134318471
 C         -5.6892259764       -3.2218695738       -1.3153126656
 C         -4.6081514387       -2.3615816198       -1.3489502595
 C         -4.5433395902       -1.2958558783       -0.4594336368
 N         -3.4774048496       -0.3748020786       -0.5023651351
 C         -2.1511823202       -0.7368390970       -0.3992657509
 C         -1.7741430293       -2.0837799589       -0.2770866534
 C         -0.4494904075       -2.4460926961       -0.1630456067
 C          0.5705759172       -1.4997781046       -0.1661880998
 N          1.8614709582       -1.8034041979       -0.0814234123
 C          2.8113399066       -0.8874720991       -0.0297538519
 C          4.1941485371       -1.2419851594        0.0312900142
 C          4.5406250224       -2.5984871540        0.0242476458
 C          5.8645298655       -2.9855538856        0.0869594922
 C          6.2083759786       -4.3548035315        0.0796546930
 N          6.4951891487       -5.4653559828        0.0726342044
 C          6.8747563473       -2.0072992782        0.1586827382
 C          6.5414664437       -0.6795028543        0.1664987362
 C          5.2036372357       -0.2471727327        0.1035579968
 C          4.8283481275        1.1400978202        0.1084068748
 C          5.7653558473        2.1869763144        0.1879704052
 C          5.3849510525        3.5020495080        0.1841519436
 C          4.0198672013        3.8387580094        0.0990130646
 C          3.6274162687        5.1948860007        0.0900132069
 N          3.3156097045        6.2987143506        0.0837164252
 C          3.0718006707        2.8386210246        0.0240254947
 C          3.4551449247        1.4912341289        0.0275287870
 C          2.4395806427        0.4906004389       -0.0479308581
 N          1.1623488500        0.8085390371       -0.1697948049
 C          0.1920584481       -0.1016952486       -0.2321197699
 C         -1.1473033246        0.2358331258       -0.3208438962
 C         -3.9218989897        0.9621597453       -0.4735118505
 C         -3.4308073721        1.9042097620       -1.3697217893
 C         -3.9154840076        3.1984228150       -1.3429039054
 C         -4.9073472882        3.5426133814       -0.4421787259
 C         -5.4295316577        2.5908558317        0.4182807176
 C         -4.9502730489        1.2906530934        0.4166531391
 H         -7.5586016747        0.7579248155        1.2676499064
 H         -6.6469392759        1.4223311617        2.6331953927
 H         -7.1112913035       -0.2652699764        2.6426475352
 H         -3.4542339625       -0.3668255034        1.9964521688
 H         -4.2886850220        0.7869782028        3.0348028469
 H         -4.7580862925       -0.9181451236        3.0464636550
 H         -7.4955216242       -1.7503849912        1.1162081792
 H         -7.5614494896       -3.6715544590       -0.3831073060
 H         -5.7352124394       -4.0529534117       -2.0025590322
 H         -3.8225181585       -2.4989522797       -2.0766914130
 H         -2.5255114821       -2.8547859481       -0.2418155744
 H         -0.1761990205       -3.4861753413       -0.0785127120
 H          3.7520303301       -3.3341094227       -0.0298567590
 H          7.9081279578       -2.3165603667        0.2069138129
 H          7.3376193334        0.0452856154        0.2211921533
 H          6.8173951565        1.9613306525        0.2548404736
 H          6.1212771807        4.2893438437        0.2451862660
 H          2.0205207114        3.0768812275       -0.0393567728
 H         -1.3936841802        1.2839841136       -0.2764090126
 H         -2.6891405601        1.6136742019       -2.0983081568
 H         -3.5272689505        3.9311369479       -2.0337742110
 H         -5.2890414342        4.5519271089       -0.4172326382
 H         -6.2170649877        2.8799699326        1.0948180589
