  69
 
 C          9.0828979747       -3.3301591746        0.3644540597
 C          9.1579823365       -2.0729779674        0.9431972742
 C          8.0984138215       -1.1912922780        0.8367317421
 C          6.9487539165       -1.5599712761        0.1402916929
 C          5.8049385667       -0.6632834692        0.0334490775
 N          4.5317760103       -1.1571047118        0.0596518939
 C          3.7435249793       -0.1175355528        0.0182098412
 C          2.2979439585       -0.1616753330        0.0281409402
 C          1.6388297606       -1.3943910650        0.0667176740
 C          0.2605207151       -1.4052477688        0.0734126273
 C         -0.4411349669       -0.1954607254        0.0400086390
 C         -1.9027149465       -0.1489437208        0.0373449020
 C         -2.5933799157        0.8523944338        0.7225662632
 C         -3.9703433971        0.8939450147        0.7230532037
 C         -4.7122467312       -0.0588404320        0.0189534871
 N         -6.1032476364       -0.0144687240        0.0091840267
 C         -6.7753449362        1.2162493793        0.0574317839
 C         -6.2928356254        2.3166761109       -0.6503784571
 C         -6.9618574320        3.5247288690       -0.5983265578
 C         -8.1219447967        3.6532060932        0.1485430487
 C         -8.6090802273        2.5605782837        0.8477863999
 C         -7.9422442576        1.3508696566        0.8088612607
 C         -6.8500728976       -1.2011196202       -0.0505978283
 C         -6.4503211219       -2.3274101658        0.6679982530
 C         -7.1905992099       -3.4925170602        0.6033672214
 C         -8.3404369307       -3.5514968074       -0.1676753948
 C         -8.7460469326       -2.4324099265       -0.8770026601
 C         -8.0075251149       -1.2654930420       -0.8254964307
 C         -4.0240881628       -1.0577124167       -0.6755624071
 C         -2.6475909026       -1.1043023465       -0.6568602457
 C          0.3265470605        0.9737281489        0.0002769191
 N          1.6419879951        0.9992570988       -0.0047783109
 O          4.4092834645        1.0465104149       -0.0401782801
 C          5.7269609886        0.7177718132       -0.0434176803
 C          6.7058576607        1.7817252317       -0.1741546872
 C          7.9350722079        1.5606859838       -0.7970967294
 C          8.8436692504        2.5941960636       -0.9213813198
 C          8.5402318954        3.8568899030       -0.4356452807
 C          7.3142602892        4.0870805903        0.1677791603
 C          6.3987483275        3.0598061568        0.2954664001
 C          6.8720774004       -2.8325881842       -0.4219707925
 C          7.9356904695       -3.7090416913       -0.3137781726
 H          9.9136859292       -4.0152099854        0.4486385661
 H         10.0450178035       -1.7790595244        1.4851965982
 H          8.1524223349       -0.2182526444        1.3023990036
 H          2.2224966294       -2.3000107970        0.0972910625
 H         -0.2763021287       -2.3411541633        0.1237184593
 H         -2.0424169461        1.5861646656        1.2920079128
 H         -4.4856282867        1.6637629188        1.2782688012
 H         -5.3945293133        2.2162556264       -1.2421776834
 H         -6.5787007634        4.3690498843       -1.1527946965
 H         -8.6435266540        4.5978782486        0.1841322554
 H         -9.5108664111        2.6521095635        1.4355295141
 H         -8.3192022727        0.5023692315        1.3611694699
 H         -5.5599827057       -2.2802369479        1.2781535396
 H         -6.8712114747       -4.3578567407        1.1659170769
 H         -8.9176617214       -4.4627750845       -0.2135625771
 H         -9.6397088436       -2.4702933375       -1.4828184189
 H         -8.3207604619       -0.3964093317       -1.3856975147
 H         -4.5804544404       -1.7931192160       -1.2377288733
 H         -2.1384303050       -1.8719395413       -1.2205651371
 H         -0.1484845662        1.9451713345       -0.0489849637
 H          8.1647314048        0.5823684432       -1.1908046371
 H          9.7924494133        2.4146698671       -1.4050956815
 H          9.2550589921        4.6604018211       -0.5331601475
 H          7.0696912341        5.0709382851        0.5404417862
 H          5.4404090378        3.2329466603        0.7627757730
 H          5.9700769474       -3.1173595515       -0.9422237285
 H          7.8689106608       -4.6912674711       -0.7586013164
