92
 xtb: 6.7.1 (edcfbbe)
C            6.71635131098250        3.05164636993461       -0.01607487501376
C            5.17691790112959        3.00808963965828       -0.00450326567369
C            4.60527405891926        4.43855374203440       -0.00054258988338
C            4.69982412266725        2.29800035505123       -1.25831776219782
C            5.04080013240832        2.80587174696129       -2.50470949138792
C            4.63497530365785        2.20257659306361       -3.68139273837692
C            3.86173195300536        1.05709450608662       -3.62245381824329
C            3.50861541297751        0.53019017619784       -2.39747464399037
C            3.91993449565467        1.13764879919481       -1.20735585234589
N            3.54633116766250        0.58426007774934        0.00874658252859
C            2.82732840906049       -0.64324714483552        0.01398176488924
C            3.52407521819842       -1.85284169476220        0.02957932076546
C            2.82112905520283       -3.03355038414457        0.03082517698332
C            1.42246357789948       -3.03518053382296        0.01817650383273
C            0.70720872662015       -1.82037496819605        0.00658121742520
C            1.44429279215928       -0.63166478119381        0.00345657997185
C           -0.75000862770378       -1.83366056900438       -0.00238130768508
C           -1.50902967938415       -0.65936268641835       -0.00145212040708
C           -2.89171577813811       -0.69600320620132       -0.01133581088788
N           -3.62697398300274        0.52154611135034       -0.00827916188809
C           -3.97579783114734        1.09310549979098        1.20652317455402
C           -3.60469722469940        0.46234972021155        2.39774279139447
C           -3.93509454664682        1.00640558283844        3.62160640791126
C           -4.64118282668895        2.19492245935605        3.67839690489207
C           -5.00991645053239        2.81947351203135        2.50058415629251
C           -4.69306065449637        2.29359047267082        1.25520599308563
C           -5.12784194565948        3.02779676316249       -0.00020685176953
C           -6.66315401422519        3.15259185396756        0.00637263229084
C           -4.48129483859782        4.42620646824808       -0.00226156725735
C           -4.70334177894796        2.29481852457291       -1.25992401060721
C           -5.03004551678488        2.82189536049363       -2.50216290332349
C           -4.66814528735406        2.20003386246038       -3.68355972481851
C           -3.95737833521761        1.01410852905542       -3.63379995992742
C           -3.61765341061030        0.46867214072043       -2.41318360909017
C           -3.98430181887628        1.09519784916682       -1.21836246053823
C           -3.56689895704369       -1.91780211832651       -0.02420686960018
C           -2.84210992661178       -3.08556519004108       -0.02349152786123
C           -1.44349329262621       -3.06111790271918       -0.01129239398145
C           -0.71308188212205       -4.30830865871615       -0.00501239524032
N           -1.38493440990068       -5.44454793598022       -0.01633791178963
C           -0.68754900350416       -6.58728806256424       -0.00432436848102
C           -1.33873441459156       -7.84240901761801       -0.01442194286812
F           -2.68819109354662       -7.87655862100636       -0.04731444581390
C           -0.63771821506325       -9.01402158873656       -0.00160860395090
C            0.76861940743526       -8.98711699847167        0.02266632291300
C            1.44980487087101       -7.80321756160595        0.03281418507768
C            0.74140287190299       -6.58245942714714        0.01907237450882
N            1.40914125793773       -5.42010621103837        0.02910851180079
C            0.71610042758226       -4.29704697594843        0.01443016491261
C            3.93754315874230        1.13860334355486        1.21749901930215
C            3.53930943215628        0.53447773718842        2.41371710887129
C            3.90903064547664        1.06257081951005        3.63327055425932
C            4.68533309773253        2.20653865693209        3.68043880149336
C            5.07626759934978        2.80787267778654        2.49771006084978
C            4.71844637744720        2.29868298525243        1.25658400342388
H            7.09637364123343        3.56412719403698       -0.88520400490942
H            7.09981438285213        3.56412526932490        0.87486523467454
H            7.12441252195799        2.03544981944646       -0.00522844891923
H            3.52580173948843        4.40150117246330        0.00180110316979
H            4.94190022296534        4.98327615528650        0.87884759078278
H            4.93786938952698        4.98258469132318       -0.88216787126534
H            5.66373895161350        3.69786551564449       -2.56109252458371
H            4.95072859901871        2.62349543170554       -4.63173349739007
H            3.56066153643795        0.56996155445110       -4.53430433745377
H            2.92520357485483       -0.36603089103144       -2.36787473639107
H            4.60829040975772       -1.85127473832189        0.01117634214971
H            3.32841087306504       -3.98852112871928        0.01194214254868
H            0.95946823377810        0.32805398846807       -0.00256460068945
H           -1.02518371334521        0.31317823237031        0.00206271523700
H           -3.03597374940306       -0.44524711547262        2.36804247469811
H           -3.63861519566692        0.51368321741489        4.53360603338769
H           -4.93761947242642        2.62621592099720        4.62970578913525
H           -5.60172485435496        3.73005916163427        2.55814200791989
H           -7.03493749782022        3.65972708657160        0.88106979369685
H           -7.03681567229081        3.65987686174401       -0.87886250770736
H           -7.12885246147743        2.13362584943683        0.00105634257226
H           -4.81892095984653        4.98345528423664       -0.88197702756906
H           -3.43055744995349        4.34144346297126       -0.00287597147130
H           -4.81701804396632        4.98344479486035        0.87921691214454
H           -5.60742741288090        3.72979177103675       -2.55925670199046
H           -4.94643865566862        2.62663227934706       -4.63218072524838
H           -3.64503542591985        0.51547339994772       -4.53878957708588
H           -3.03799036933658       -0.44345668689930       -2.37439495051256
H           -4.64105103777004       -1.92079293704092       -0.00934477814173
H           -3.33008491760996       -4.03834248392308       -0.00824247453962
H           -1.17907165291047       -9.94721170060691        0.00001688790300
H            1.29522555262905       -9.92296977354260        0.01206866958760
H            2.52239096513927       -7.76573091173327        0.01641787118861
H            2.93245697981700       -0.36368556826353        2.37499578639476
H            3.57571471490054        0.57347578005985        4.53865655574956
H            4.96716380057358        2.62638692453475        4.62991076389151
H            5.67319683846745        3.69925829085336        2.55610510355804
