  94
 
 C         -5.4743687088        3.8611373430        0.4113147465
 C         -5.1825771113        2.6854932829       -0.5393214418
 C         -5.9162173635        2.8855380353       -1.8779990684
 C         -3.6933818313        2.6323396920       -0.8151943647
 C         -3.0710103020        3.7302576315       -1.3949961001
 C         -1.7277411207        3.7279978144       -1.7184709458
 C         -0.9851609765        2.5824583976       -1.4991435054
 C         -1.5801593960        1.4769928434       -0.9300689008
 C         -2.9229023274        1.4982011743       -0.5411030381
 N         -3.4829204056        0.3821934459        0.0738016507
 C         -2.6486248814       -0.7043093391        0.4143886657
 C         -1.6094355609       -0.5240450670        1.3267418815
 C         -0.7936936466       -1.5811919154        1.6598405449
 C         -0.9975506029       -2.8439097351        1.0990900227
 C         -0.0975397319       -3.9356943745        1.5295916991
 O          0.5538356633       -3.8568346792        2.5536218118
 C         -0.0419933760       -5.1706699510        0.6960448816
 C         -0.0530897581       -6.3860987778        1.3755406938
 C         -0.0263157995       -7.5856153435        0.6890781334
 C          0.0149485089       -7.5854686700       -0.6961210561
 C          0.0425480458       -6.3858049119       -1.3822942008
 C          0.0323950374       -5.1705554026       -0.7024815572
 C          0.0897814436       -3.9353652115       -1.5355669800
 O         -0.5614379720       -3.8548643587       -2.5595555871
 C          0.9916781268       -2.8455175391       -1.1042443395
 C          2.0510221022       -3.0343485555       -0.2170215791
 C          2.8603321094       -1.9720897072        0.1329041990
 C          2.6463076003       -0.7095054334       -0.4170720657
 N          3.4825695950        0.3749232213       -0.0750376858
 C          2.9244645693        1.4923665721        0.5390321521
 C          1.5808542228        1.4750609945        0.9251334507
 C          0.9876455763        2.5824487340        1.4923341914
 C          1.7329297710        3.7260482947        1.7125931926
 C          3.0770699533        3.7241361954        1.3927853535
 C          3.6977297760        2.6241414011        0.8150926182
 C          5.1882404725        2.6717757357        0.5453117353
 C          5.9167001623        2.8645254860        1.8879179001
 C          5.4895724160        3.8489188927       -0.4004375637
 C          5.6842437487        1.3962384991       -0.1065427651
 C          7.0279797165        1.2868931706       -0.4403346117
 C          7.5359521255        0.1807865024       -1.0939105744
 C          6.6749850642       -0.8382267463       -1.4581560252
 C          5.3380578692       -0.7584032521       -1.1310690261
 C          4.8302901281        0.3341888820       -0.4212436665
 C          1.6076650986       -0.5265351692       -1.3295293049
 C          0.7901302156       -1.5819180927       -1.6638189643
 C         -2.0572973423       -3.0299604401        0.2117817846
 C         -2.8648778238       -1.9659286919       -0.1368932514
 C         -4.8302035065        0.3448534770        0.4220513602
 C         -5.3402665175       -0.7477439800        1.1302013188
 C         -6.6767598157       -0.8237365991        1.4599979866
 C         -7.5349388852        0.1992498020        1.1003547292
 C         -7.0246051727        1.3050155051        0.4480531958
 C         -5.6813256609        1.4103182378        0.1111554226
 H         -5.1411329332        4.8013141468       -0.0189322577
 H         -4.9535299044        3.7113162069        1.3552933746
 H         -6.5380848468        3.9408465150        0.6166092603
 H         -5.5936905061        3.8023616483       -2.3636591509
 H         -6.9908601669        2.9394536142       -1.7277385570
 H         -5.7036935032        2.0514532844       -2.5441604317
 H         -3.6494429979        4.6173218298       -1.6037826076
 H         -1.2720278535        4.6035928971       -2.1545088952
 H          0.0593268672        2.5492652896       -1.7703447191
 H         -0.9984630794        0.5800274467       -0.7907508236
 H         -1.4581309285        0.4481043957        1.7715554400
 H          0.0131277486       -1.4577808115        2.3671193730
 H         -0.0926804989       -6.3687111448        2.4546893607
 H         -0.0404978986       -8.5180411876        1.2330054358
 H          0.0287357382       -8.5177780383       -1.2402598091
 H          0.0823018063       -6.3681569649       -2.4614344991
 H          2.2573627513       -4.0123365199        0.1903746446
 H          3.6704830141       -2.1146896744        0.8322485641
 H          0.9970013834        0.5796132626        0.7851963743
 H         -0.0575168270        2.5522902967        1.7612551781
 H          1.2786007769        4.6032184692        2.1468824006
 H          3.6576371168        4.6094476659        1.6030307916
 H          5.5962139122        3.7815269994        2.3746364525
 H          6.9922820201        2.9136074799        1.7426983823
 H          5.6970739476        2.0295889490        2.5507170941
 H          5.1593617760        4.7894308830        0.0313696888
 H          4.9718294121        3.7046157580       -1.3469675034
 H          6.5544754093        3.9241339227       -0.6011881865
 H          7.7029763210        2.0904771586       -0.1879818950
 H          8.5869926701        0.1252153009       -1.3321789346
 H          7.0397059810       -1.6971266536       -2.0013166869
 H          4.6765755888       -1.5517613729       -1.4416886038
 H          1.4581940401        0.4462863842       -1.7734824393
 H         -0.0163405774       -1.4564114653       -2.3711320412
 H         -2.2652833609       -4.0071389357       -0.1967217697
 H         -3.6753479919       -2.1064309112       -0.8362933151
 H         -4.6808985291       -1.5441802166        1.4374151442
 H         -7.0432942696       -1.6827193693        2.0018099065
 H         -8.5855705707        0.1469395376        1.3411860456
 H         -7.6973025584        2.1116536060        0.1993070619
