  72
 
 C         -7.7914541776        2.2862045412       -1.6920120801
 C         -8.2004666261        1.8378027959       -0.2898361268
 N         -7.5441267725        0.5955574988        0.0702211220
 C         -8.2969862906       -0.4885518667        0.5071573881
 C         -9.4882575824       -0.3022733745        1.2142346047
 C        -10.2521548940       -1.3774519710        1.6250271056
 C         -9.8404737849       -2.6736309360        1.3614981304
 C         -8.6456715688       -2.8818049544        0.6993098841
 C         -7.8805924512       -1.8055607275        0.2774450716
 S         -6.3909209023       -2.1434667331       -0.6063342640
 C         -5.4807071754       -0.6760831813       -0.2057598741
 C         -4.1091723868       -0.7481388016       -0.2268145326
 C         -3.3059654787        0.3887191597       -0.0092165410
 C         -1.8769437917        0.3263465588       -0.0221850992
 C         -1.1812793735       -0.9165427613        0.0579201783
 C          0.1751816576       -1.0158575555        0.0772058150
 C          1.0460880804        0.1079848331       -0.0185515156
 C          2.4712338201       -0.0435585501       -0.0014836898
 C          3.0884232274       -1.2066117580        0.5066922717
 C          4.4517798749       -1.3517487563        0.5209901761
 C          5.2859869945       -0.3438315472        0.0204967900
 N          6.6689728435       -0.4934024998        0.0324116412
 C          7.2419683736       -1.7572310225       -0.1471286472
 C          8.3795771101       -2.1250397023        0.5722464642
 C          8.9430722714       -3.3725769658        0.3899701164
 C          8.3830592216       -4.2720796952       -0.5029906590
 C          7.2525380319       -3.9118646575       -1.2187846930
 C          6.6843862066       -2.6647888272       -1.0484739614
 C          7.4967569564        0.6185948225        0.2269186114
 C          8.7014923776        0.7300773166       -0.4678178046
 C          9.5179669611        1.8261464682       -0.2696867003
 C          9.1471953174        2.8265424793        0.6144553206
 C          7.9504428788        2.7210512320        1.3049679939
 C          7.1294071844        1.6263266836        1.1191281043
 C          4.6900397683        0.8196973633       -0.4844466144
 C          3.3273598179        0.9652551729       -0.4905125426
 C          0.3970299068        1.3658881309       -0.1318268613
 N          0.9920537644        2.5485350356       -0.2324265873
 S         -0.1476727268        3.7231839399       -0.2984244214
 N         -1.4536704521        2.7375261296       -0.1952921637
 C         -1.0461178002        1.4772655521       -0.1050934446
 C         -3.9948354008        1.5970943952        0.2364876573
 C         -5.3633813395        1.6605535348        0.2649376001
 C         -6.1603246202        0.5277495414        0.0410991256
 H         -8.0247712411        1.5065175960       -2.4136688061
 H         -8.3411221642        3.1844935342       -1.9604102987
 H         -6.7275130821        2.4985736546       -1.7476436773
 H         -9.2758611049        1.6586814842       -0.2906934787
 H         -7.9861670060        2.6257606980        0.4414019667
 H         -9.8127412725        0.6958262576        1.4640315182
 H        -11.1705561018       -1.1984993349        2.1631223766
 H        -10.4375343611       -3.5142374125        1.6778027975
 H         -8.2945615225       -3.8804355247        0.4896435548
 H         -3.6666412146       -1.7011687289       -0.4675804861
 H         -1.7576010775       -1.8242828747        0.1402687911
 H          0.6131851254       -2.0004139533        0.1310632589
 H          2.4875457802       -1.9888353827        0.9434614528
 H          4.8952273848       -2.2416813445        0.9447082163
 H          8.8101647997       -1.4289953208        1.2771617226
 H          9.8210731250       -3.6474899871        0.9555257548
 H          8.8250683671       -5.2470660762       -0.6404753228
 H          6.8141946692       -4.6045175481       -1.9218778528
 H          5.8110769511       -2.3794225351       -1.6162251148
 H          8.9857391819       -0.0433596084       -1.1663255638
 H         10.4462624136        1.9036577638       -0.8161222678
 H          9.7867784368        3.6829322781        0.7640912241
 H          7.6568712917        3.4935861245        1.9999049840
 H          6.2024951843        1.5393050660        1.6663051724
 H          5.3174085055        1.6000838059       -0.8902483121
 H          2.8861687688        1.8627815448       -0.8911831760
 H         -3.4152543073        2.4875943192        0.4156040390
 H         -5.8328818084        2.6047119945        0.4906102908
