  68
 
 N         -0.0368001860        6.8517980209       -0.6169346885
 C         -0.4039606543        5.7630091098       -0.5105993335
 C         -0.8471137397        4.4421808665       -0.3811808338
 C         -0.4078311105        3.6478081864        0.6936301830
 C         -0.8330553191        2.3495811180        0.8134599077
 C         -1.7259948853        1.8038312313       -0.1258639377
 N         -2.1280245751        0.4776975871       -0.0065256217
 C         -1.2505902071       -0.6116464597        0.1942981631
 C          0.1532840488       -0.6022013436        0.1068188295
 C          0.9223830321        0.3970884625       -0.5495264364
 C          2.2868964789        0.3271548808       -0.5794022209
 C          2.9735870117       -0.7374173718        0.0313933139
 N          4.3593064265       -0.7738548621        0.0284601321
 C          5.1478731082       -1.8791458705       -0.2440543499
 C          4.7767536086       -3.1564013872       -0.6447022317
 C          5.7817356906       -4.0755460464       -0.8879779216
 C          7.1255418826       -3.7360667621       -0.7544728380
 C          7.5030512822       -2.4542358232       -0.3931269473
 C          6.5123755772       -1.5177858802       -0.1419222718
 C          6.5414165794       -0.1228023517        0.2136503727
 C          7.5690186179        0.7709686345        0.4720834803
 C          7.2438341376        2.0689551139        0.8265806594
 C          5.9148095238        2.4674914479        0.9444252082
 C          4.8738098898        1.5911499057        0.6950786479
 C          5.1932184490        0.2971830969        0.3037491618
 C          2.2225568121       -1.7687822687        0.6315760056
 C          0.8604537429       -1.7077048048        0.6598211498
 N         -1.9408980223       -1.7524943058        0.3807041439
 C         -3.2217828965       -1.4500489931        0.2315778881
 C         -4.3304570023       -2.3462575756        0.2310718623
 C         -4.1367958796       -3.7261512857        0.3396245250
 C         -5.2094298611       -4.5883352437        0.2689765889
 C         -6.4837502198       -4.0707439752        0.0741261085
 C         -6.6865461833       -2.7069223855       -0.0219657697
 C         -5.6244285725       -1.8002903954        0.0692429729
 C         -5.8095293938       -0.3556163231        0.0332810665
 C         -7.0832901015        0.2122498784        0.0458876916
 C         -7.2818152501        1.5791010838        0.0712596735
 C         -6.1865036161        2.4389709210        0.1153091326
 C         -4.9156316164        1.9261752837        0.0945578652
 C         -4.6835375691        0.5331673292        0.0275284814
 C         -3.4006791878       -0.0453172531        0.0195758000
 C         -2.1669962492        2.5972905925       -1.1985651623
 C         -1.7333592262        3.8921899755       -1.3274668723
 H          0.2619394010        4.0746241575        1.4258283669
 H         -0.5010082318        1.7390053232        1.6399101150
 H          0.4275625646        1.1853263683       -1.0924783468
 H          2.8489223226        1.0708574425       -1.1242131428
 H          3.7411869691       -3.4251326206       -0.7816736120
 H          5.5167621007       -5.0762419387       -1.1949316332
 H          7.8816841538       -4.4814705711       -0.9503552213
 H          8.5450778169       -2.1846727441       -0.3146363741
 H          8.5993289655        0.4573660433        0.4036119725
 H          8.0293342795        2.7819289615        1.0275591475
 H          5.6899318319        3.4806170490        1.2429525294
 H          3.8492398613        1.9064354672        0.8167672380
 H          2.7388451803       -2.5827647352        1.1166936067
 H          0.2796699571       -2.4794702620        1.1387779130
 H         -3.1278775526       -4.0866286247        0.4677871207
 H         -5.0611798259       -5.6544181246        0.3522725338
 H         -7.3293575046       -4.7387558808       -0.0018458766
 H         -7.6929869406       -2.3540556305       -0.1793078430
 H         -7.9535144272       -0.4237917756        0.0537810835
 H         -8.2848676107        1.9780986174        0.0778665473
 H         -6.3361864288        3.5070531966        0.1722277171
 H         -4.0753389552        2.5971977007        0.1590434074
 H         -2.8344426342        2.1687019985       -1.9320848299
 H         -2.0592988878        4.4979840469       -2.1602648786
