  153
 
 C         13.3608321069       -3.7256562047       -2.0914129622
 C         12.8600541149       -2.5128159846       -1.3027303127
 C         13.3103860450       -2.6709713258        0.1565023897
 C         13.4963706584       -1.2536988660       -1.9088872681
 C         11.3451648703       -2.3751355351       -1.3410618820
 C         10.5165590976       -3.2807676992       -2.0042236964
 C          9.1482499518       -3.1296242765       -1.9847466319
 C          8.5622326911       -2.0565124063       -1.3154288398
 C          9.3587928220       -1.0928268361       -0.6703277145
 C         10.7405603493       -1.3115345983       -0.6930964512
 B          8.6236391325        0.0939353332       -0.0030763008
 C          9.1127849215        1.4080283489        0.6502487096
 C         10.4263350747        1.8994164258        0.6450804000
 C         10.8095753070        3.0686073197        1.2716734029
 C         12.2386903705        3.5893231330        1.2561558334
 C         12.7427137085        3.7152952718        2.7007735328
 C         12.2592495852        4.9651411375        0.5755978019
 C         13.1968891350        2.6664332923        0.4973531017
 C          9.8208946453        3.7953576625        1.9435075106
 C          8.5137096193        3.3736165377        1.9539509729
 C          8.1480114200        2.1948979499        1.3015519500
 O          6.8166488692        1.9085031393        1.3516688506
 C          6.2909371099        0.8593115545        0.6837216627
 C          4.9080510769        0.7204241838        0.7016186507
 C          4.3233368767       -0.3351958544        0.0147995628
 N          2.9105559311       -0.4653928207        0.0154769296
 C          2.1573015421        0.4068738670       -0.7577793972
 C          2.7875985033        1.3397460224       -1.5857697697
 C          2.0493890597        2.2144982221       -2.3562799349
 C          0.6661846882        2.1748070469       -2.3272122977
 C          0.0372614554        1.2394268998       -1.5276384264
 C          0.7618208074        0.3524784456       -0.7465469650
 C          0.0009013679       -0.6534394951        0.0939333635
 C          0.9305442923       -1.5950277824        0.8294119271
 C          0.3667144082       -2.6016284092        1.5977613851
 C          1.1505576399       -3.4726374216        2.3304632121
 C          2.5263145459       -3.3222441833        2.3065208709
 C          3.1060023081       -2.3266889042        1.5467804885
 C          2.3201153298       -1.4589847782        0.7837544358
 C         -0.8075566823        0.1112184733        1.1222484213
 C         -0.1278789110        0.8151742279        2.1041446872
 C         -0.8030275247        1.5319777156        3.0738393824
 C         -2.1871528205        1.5337895837        3.0686651711
 C         -2.8809689840        0.8386700805        2.0994782839
 C         -2.2038025847        0.1305783431        1.1029794352
 N         -2.9130144186       -0.5633524588        0.1323877308
 C         -4.3255210772       -0.4378980059        0.0979530521
 C         -5.1242725183       -1.4892173705        0.5280197832
 C         -6.5070570404       -1.3551605388        0.4788984188
 C         -7.1101191535       -0.1708785478        0.0278453605
 C         -6.2717151078        0.8756953957       -0.3860304223
 C         -4.8882880868        0.7441272085       -0.3648208336
 O         -6.7750067608        2.0464027035       -0.8316767173
 C         -8.1112134137        2.3117470271       -0.7954317944
 C         -8.4559828622        3.6038004534       -1.1958326581
 C         -9.7674705414        4.0108939400       -1.1709582195
 C        -10.7818265754        3.1531635170       -0.7325887919
 C        -12.2170380928        3.6553985300       -0.6918343629
 C        -12.6399109764        4.0768573161       -2.1061683263
 C        -12.2969429127        4.8602124985        0.2561549488
 C        -13.2026339614        2.5926136159       -0.1975346974
 C        -10.4182572885        1.8760948374       -0.3533078774
 C         -9.0993519667        1.3997378239       -0.3876420945
 B         -8.6276452066       -0.0250200619       -0.0098498724
 C         -9.3796757092       -1.3321688619        0.3378139756
 C        -10.7616601922       -1.5493038438        0.2353664271
 C        -11.3798621871       -2.7320856679        0.5900187136
 C        -12.8804049346       -2.9527862795        0.4740995106
 C        -13.4471355214       -3.2797190650        1.8628616851
 C        -13.6199088860       -1.7245270581       -0.0642318090
 C        -13.1391714857       -4.1248950946       -0.4829221800
 C        -10.5702030896       -3.7645941183        1.0749267665
 C         -9.2081233559       -3.6140043677        1.1673995996
 C         -8.6043992741       -2.4132009467        0.7903792910
 O         -7.2454741126       -2.4064778129        0.8943609174
 C         -2.2768772630       -1.3680597379       -0.8029193974
 C         -3.0184222598       -2.0818087244       -1.7480320781
 C         -2.3923136655       -2.8920684989       -2.6731653130
 C         -1.0129291463       -3.0052931591       -2.6840442520
 C         -0.2724486620       -2.2806897405       -1.7694328363
 C         -0.8831824660       -1.4606197309       -0.8335240349
 C          5.0993157488       -1.2571224078       -0.6752439483
 C          6.4827760738       -1.1219347449       -0.6662707986
 C          7.1068519939       -0.0598591098        0.0063399028
 O          7.1991985392       -2.0448502654       -1.3430882955
 H         13.0831808518       -3.6520376238       -3.1403766146
 H         12.9644349869       -4.6512767137       -1.6805872028
 H         14.4465481875       -3.7720275169       -2.0342084565
 H         12.8528525053       -3.5541540918        0.5974303813
 H         13.0286250379       -1.8086992081        0.7545700795
 H         14.3916756481       -2.7813277322        0.2053104002
 H         14.5800575234       -1.3496875850       -1.9192725280
 H         13.1524810826       -1.1135433946       -2.9315813934
 H         13.2415616871       -0.3647516018       -1.3389479615
 H         10.9294770271       -4.1235411928       -2.5335343086
 H          8.5045648871       -3.8421215500       -2.4778182340
 H         11.3591986408       -0.6124284993       -0.1555907863
 H         11.1561797978        1.3286519713        0.0997077911
 H         12.7023814957        2.7487447349        3.1989308401
 H         12.1420130598        4.4176046737        3.2716827238
 H         13.7728897904        4.0651808622        2.7087821465
 H         11.6390021743        5.6800106933        1.1090874573
 H         11.8873769718        4.8855713697       -0.4438644690
 H         13.2752931692        5.3529134363        0.5434636402
 H         13.2375986592        1.6817803888        0.9580435463
 H         12.9019083331        2.5648979793       -0.5446901015
 H         14.1998136625        3.0880062638        0.5211053212
 H         10.0712061408        4.7124112208        2.4545944356
 H          7.7464294910        3.9455778398        2.4530577815
 H          4.2997171092        1.4363815592        1.2308236857
 H          3.8653336028        1.3740196895       -1.6277905548
 H          2.5609570274        2.9281533151       -2.9851678638
 H          0.0846491143        2.8587706174       -2.9260533001
 H         -1.0416703543        1.1884422274       -1.5062286429
 H         -0.7098145375       -2.6937693924        1.6194115131
 H          0.6937189861       -4.2517789312        2.9210168557
 H          3.1564625449       -3.9815556965        2.8851041016
 H          4.1792032344       -2.2146159353        1.5474429415
 H          0.9523871678        0.7949427739        2.1034591068
 H         -0.2562865714        2.0765939677        3.8282058048
 H         -2.7341258983        2.0762656179        3.8256626108
 H         -3.9600135752        0.8383334148        2.1148250776
 H         -4.6827018189       -2.4050332363        0.8872488826
 H         -4.2633008248        1.5598595600       -0.6915313344
 H         -7.6696486941        4.2716179482       -1.5131247472
 H        -10.0016329307        5.0165366081       -1.4851320134
 H        -12.0149684065        4.8806817332       -2.4849040475
 H        -13.6716006412        4.4222840165       -2.1014204818
 H        -12.5612422419        3.2333930133       -2.7890383959
 H        -11.9786358136        4.5731401126        1.2562597935
 H        -11.6618108547        5.6740218958       -0.0823947426
 H        -13.3197352493        5.2271353196        0.3111808337
 H        -14.2083528406        3.0080876981       -0.1897496007
 H        -12.9633538417        2.2770810383        0.8154760571
 H        -13.2047244833        1.7249459676       -0.8532927390
 H        -11.1708852007        1.1993314291        0.0092252671
 H        -11.3527740142       -0.7436362309       -0.1613271023
 H        -13.2461460658       -2.4626696332        2.5527629810
 H        -13.0051812671       -4.1849371304        2.2695275145
 H        -14.5238063723       -3.4245738335        1.8034552911
 H        -14.6845411191       -1.9414331436       -0.1247804412
 H        -13.4902879917       -0.8690503924        0.5947338357
 H        -13.2742364281       -1.4651276405       -1.0623418762
 H        -12.6895820849       -5.0432622564       -0.1158106574
 H        -14.2088913125       -4.2901554160       -0.5931543792
 H        -12.7201596806       -3.9087833655       -1.4635705286
 H        -11.0066088596       -4.7058249998        1.3724014540
 H         -8.5800860944       -4.4175247370        1.5208462641
 H         -4.0937991948       -1.9950290241       -1.7604971758
 H         -2.9891357478       -3.4351621638       -3.3910751359
 H         -0.5198006671       -3.6403722017       -3.4037836778
 H          0.8064108472       -2.3420110374       -1.7776483028
 H          4.6397171184       -2.0753533335       -1.2062645665
