  107
 
 C         -4.7374103286       -1.1550209676        1.7438065265
 C         -4.9726228548        0.2542280652        1.1852055138
 C         -5.5908373487        1.0929587384        2.3110499568
 C         -5.9981065559        0.1660889060        0.0427942476
 C         -3.6894775479        0.8805445445        0.6517582281
 C         -3.3727592103        2.1589798702        0.8769243396
 C         -2.1876478957        2.7591928186        0.3166258938
 C         -1.3684813143        2.0778761606       -0.4797119179
 C         -1.5978112807        0.6483082971       -0.9251410959
 C         -2.0797954665        0.8238236222       -2.4463134247
 C         -2.2801916175       -0.4825849197       -3.2351612119
 C         -1.2408911649        1.8045786037       -3.2886846948
 C         -3.4725531627        1.5039217561       -2.4287525712
 C         -0.1799672438       -0.0158260243       -0.4194935010
 C          0.1826781988       -1.6365636475       -0.2316837215
 C         -0.6512998345       -2.7550933887        0.5732082435
 C         -1.0318561000       -2.4409223333        2.0293928353
 C         -1.9110959480       -3.2452113810       -0.1716024945
 C          0.2245839086       -4.0270713061        0.6844470368
 C          0.2539915067       -2.2800894388       -1.5884241501
 C          1.3285595036       -2.8997990117       -2.0744909918
 C          2.5824817079       -2.9463602895       -1.3645744297
 C          2.7203295394       -2.3690180643       -0.1693654127
 C          4.0175987095       -2.3900639101        0.6249474291
 C          3.8473769692       -3.2655017404        1.8763205882
 C          4.4043700963       -0.9662378422        1.0515463616
 C          5.1805812090       -2.9613135942       -0.1940017684
 C          1.5899053517       -1.5797783823        0.4404184944
 C          0.9404220944        0.4398417016       -1.3753030802
 C          1.0153744930       -0.0451539786       -2.6772203536
 C          2.0500246758        0.2345195546       -3.5519129446
 C          3.0766476321        1.0640651000       -3.1492429838
 C          3.0204473814        1.6107895269       -1.8883717984
 C          1.9748832014        1.3139849830       -1.0065610248
 N          2.0211098133        1.8922493488        0.2475567307
 C          2.8817549008        3.0087316126        0.4543102392
 C          2.4611180987        4.2701998283        0.0530078687
 C          3.2851101394        5.3653573980        0.2406559729
 C          4.5285786392        5.2064521576        0.8287744847
 C          4.9479972237        3.9491400284        1.2307449893
 C          4.1291946171        2.8494073224        1.0456154662
 C          1.0920950848        1.5641598423        1.2176645077
 C          1.2545732725        2.1603392902        2.4720680597
 C          0.3704888984        1.9358018486        3.5010128346
 C         -0.7087153971        1.1122824500        3.2594276685
 C         -0.8568957781        0.5155677794        2.0213828898
 C          0.0243116652        0.6820049358        0.9562827155
 C         -2.7966744528       -0.0059264872       -0.1867210936
 H         -4.3686684265       -1.8371525965        0.9835740443
 H         -5.6748404103       -1.5587540650        2.1219346765
 H         -4.0318649808       -1.1220671133        2.5717064316
 H         -4.8643586489        1.2751514962        3.0995036324
 H         -5.9554715375        2.0465223319        1.9388856051
 H         -6.4366756225        0.5604206352        2.7415031073
 H         -6.1416320403        1.1426045528       -0.4143240300
 H         -5.6768405815       -0.5349410911       -0.7241657326
 H         -6.9554964083       -0.1779468489        0.4289224644
 H         -3.9931419291        2.8027601177        1.4778279865
 H         -1.9748637044        3.7863842423        0.5784637257
 H         -0.4924373726        2.5533183129       -0.8929653188
 H         -3.0784514657       -0.3408356428       -3.9627316432
 H         -2.5705091265       -1.3108802295       -2.5949413213
 H         -1.4004041800       -0.7736902174       -3.7985073601
 H         -1.4380928692        2.8282408711       -2.9790420488
 H         -1.5437552341        1.7124401845       -4.3306831650
 H         -0.1749524159        1.6346455753       -3.2375678278
 H         -4.2753769470        0.8340100045       -2.1429981815
 H         -3.6940501157        1.8550094759       -3.4354046749
 H         -3.4896103001        2.3626371069       -1.7666445414
 H         -2.0130284187       -1.9886069974        2.1128838676
 H         -0.3068641472       -1.7975455760        2.5182904148
 H         -1.0769148281       -3.3733321810        2.5907611464
 H         -1.6436681066       -3.9715773322       -0.9356690542
 H         -2.5703359974       -3.7464514602        0.5358504093
 H         -2.4695203788       -2.4530582228       -0.6514388504
 H          0.6434038359       -4.3242299790       -0.2700398530
 H         -0.4049287089       -4.8427584900        1.0379817284
 H          1.0354447336       -3.9105380660        1.3943337865
 H         -0.6688751163       -2.3064389372       -2.1410519959
 H          1.2847200988       -3.3899143253       -3.0378827521
 H          3.3851355416       -3.4827751852       -1.8424290530
 H          4.7899339193       -3.3286503547        2.4164638825
 H          3.5451115578       -4.2721280525        1.5948979219
 H          3.1019260708       -2.8533358574        2.5521540711
 H          5.3929165988       -0.9733792570        1.5077839840
 H          4.4305606225       -0.3136633242        0.1804303939
 H          3.7026396931       -0.5643240474        1.7785999466
 H          6.0985406998       -2.9105874044        0.3884939968
 H          5.3243954216       -2.3898619431       -1.1078492852
 H          5.0059709879       -4.0033216209       -0.4494691770
 H          1.4893516073       -1.8498530662        1.4919388560
 H          1.9510227586       -0.5572502305        0.4488412898
 H          0.2244717281       -0.6557650438       -3.0522812884
 H          2.0394096524       -0.1928610025       -4.5429225686
 H          3.9029666578        1.2932729341       -3.8050932991
 H          3.8054750432        2.2754370539       -1.5617738514
 H          1.4886733814        4.3834818397       -0.4033819566
 H          2.9549762642        6.3447778806       -0.0721445123
 H          5.1707938958        6.0620534158        0.9746700912
 H          5.9171470299        3.8229622370        1.6902721989
 H          4.4492996855        1.8670868016        1.3579885160
 H          2.0921059626        2.8214173528        2.6308701527
 H          0.5182230611        2.4072079757        4.4608987782
 H         -1.4463493119        0.9278412281        4.0260152885
 H         -1.7411143745       -0.0653407352        1.9086801003
 H         -2.4182578794       -0.7996357797        0.4439620161
 H         -3.4347619539       -0.5040877343       -0.9161986261
