  85
 
 O          7.4433469676       -1.3891010141       -2.0551594516
 P          7.0284731676       -0.5986678344       -0.8801021257
 C          7.6985350365       -1.2489451703        0.6857133213
 C          7.9433238551       -0.4505501013        1.7955760165
 C          8.4440347233       -1.0209047113        2.9527967108
 C          8.7000383928       -2.3821856695        3.0046820740
 C          8.4608445601       -3.1785787741        1.8958923110
 C          7.9604980382       -2.6116686771        0.7374151773
 C          7.5776408938        1.1384197989       -0.9620782532
 C          8.7575749625        1.3864643215       -1.6512215191
 C          9.2531697575        2.6751684763       -1.7376500829
 C          8.5676430939        3.7187298161       -1.1359363681
 C          7.3860212274        3.4739390444       -0.4542066688
 C          6.8880350040        2.1856998047       -0.3650356229
 C          5.2218119168       -0.5420272652       -0.6623745826
 C          4.4421409713       -0.7461273274       -1.7932109986
 C          3.0641376585       -0.6882827929       -1.7083569803
 C          2.4482472631       -0.4193958558       -0.4890415083
 C          0.9721812889       -0.3430109910       -0.3932136887
 C          0.2153843247       -1.5209431179       -0.3452875273
 C          0.8258463815       -2.8029234362       -0.3784705948
 C          0.0791980726       -3.9401174541       -0.3411801248
 C         -1.3270460074       -3.8659084454       -0.2693255883
 C         -1.9502958260       -2.6567879257       -0.2264443281
 C         -1.2095378097       -1.4453109337       -0.2515171602
 C         -1.8385836795       -0.1938743232       -0.2007137592
 C         -3.3137658712       -0.1139035783       -0.1032439992
 C         -3.9609042061       -0.3811641643        1.0996482071
 C         -5.3371829762       -0.3042370850        1.1936088086
 C         -6.0887771492        0.0439457929        0.0771338954
 N         -7.4912592026        0.1300404045        0.1723573761
 C         -8.4084254177       -0.3583915004       -0.7336920109
 C         -8.2472322166       -1.1258921114       -1.8781013514
 C         -9.4036922926       -1.4774338665       -2.5540179003
 C        -10.6475831326       -1.0698311147       -2.0715662768
 N        -10.8214884916       -0.3652310654       -0.9686551685
 C         -9.7233942132       -0.0209877870       -0.3095966250
 C         -9.5788208234        0.7048324524        0.9174219068
 C        -10.4373669559        1.3112741836        1.8225043637
 C         -9.8624162402        1.9332619777        2.9191219228
 C         -8.4772386872        1.9300133407        3.0669280993
 N         -7.6329668152        1.3609212482        2.2208040686
 C         -8.1838898479        0.7627726640        1.1764353165
 C         -5.4512013055        0.3240873128       -1.1268926685
 C         -4.0744833459        0.2407681821       -1.2131353947
 C         -1.0804627591        0.9842821126       -0.2451596711
 C         -1.6860498022        2.2671679938       -0.1758450230
 C         -0.9389988901        3.4035320355       -0.2302642712
 C          0.4632608595        3.3287044243       -0.3581817839
 C          1.0839093125        2.1188482490       -0.4132508804
 C          0.3436892936        0.9084733542       -0.3480393391
 C          3.2356022571       -0.2249458640        0.6433087664
 C          4.6136035974       -0.2892512743        0.5611583202
 H          7.7536903323        0.6124573108        1.7474578481
 H          8.6380365548       -0.4011324647        3.8161333484
 H          9.0923807145       -2.8222395615        3.9096394620
 H          8.6655751647       -4.2385709991        1.9336079740
 H          7.7763444562       -3.2094321582       -0.1449733627
 H          9.2687567001        0.5569873312       -2.1208413268
 H         10.1716118637        2.8656224678       -2.2733596547
 H          8.9527299308        4.7256244555       -1.2024211014
 H          6.8496411769        4.2895010726        0.0087513220
 H          5.9631013429        1.9931197640        0.1594242349
 H          4.9350285155       -0.9575134015       -2.7323286098
 H          2.4569657321       -0.8476971107       -2.5878540795
 H          1.9031795588       -2.8590071403       -0.4355954574
 H          0.5577706234       -4.9083724323       -0.3681262015
 H         -1.9040653406       -4.7790723988       -0.2488922068
 H         -3.0273688113       -2.5997150262       -0.1726463966
 H         -3.3773378231       -0.6506089282        1.9675372120
 H         -5.8367414372       -0.5023943316        2.1284853897
 H         -7.2751218234       -1.4460939473       -2.2218811367
 H         -9.3484301350       -2.0727230119       -3.4519412084
 H        -11.5553518916       -1.3354852231       -2.5967258958
 H        -11.5056291449        1.2946233376        1.6685536490
 H        -10.4761470748        2.4212721273        3.6595903391
 H         -8.0110910168        2.4126695112        3.9157930291
 H         -6.0313375007        0.6252220933       -1.9864323030
 H         -3.5803038825        0.4594152734       -2.1484478330
 H         -2.7598061423        2.3248552354       -0.0759805879
 H         -1.4144870304        4.3721532044       -0.1766217949
 H          1.0391999790        4.2412980118       -0.4097200415
 H          2.1579403369        2.0597102336       -0.5110092800
 H          2.7579460360       -0.0262333556        1.5920230579
 H          5.2181951231       -0.1530056974        1.4464662472
