  140
 
 C          5.9111626186       -0.7444830617        5.4523639982
 C          5.8935882824       -1.7705419441        4.3086718294
 C          7.3443665846       -2.0864838683        3.9314791696
 C          5.2301134031       -3.0695944180        4.7896261150
 C          5.0960848040       -1.2003499111        3.1461230697
 C          3.7640003121       -0.8319256669        3.3346209260
 C          3.0072119810       -0.2900685686        2.3188170531
 C          3.5572287176       -0.0970647396        1.0499796744
 N          2.7790218293        0.4457657848        0.0301124278
 C          3.3451520783        1.2107194129       -0.9879995076
 C          2.7826157887        1.1951645056       -2.2635161727
 C          3.3184692269        1.9580430974       -3.2822106547
 C          4.4346314575        2.7630331724       -3.0797261535
 C          5.0589142109        3.6139241217       -4.1743155667
 C          6.5233418551        3.1912667303       -4.3661709578
 C          4.9955880866        5.0911497292       -3.7571558605
 C          4.3397815377        3.4661372993       -5.5186153641
 C          4.9852397411        2.7762564573       -1.7980462061
 C          4.4585121471        2.0252815049       -0.7698369236
 C          1.3938220797        0.2190546823        0.0232769970
 C          0.5046576822        1.3348141718        0.0100521590
 C          0.9478458059        2.6592528660        0.0711908192
 C          0.0653178060        3.7281420248        0.0196107923
 C         -1.3012857706        3.5281402245       -0.1198996816
 C         -2.2406220506        4.7198842187       -0.2110561361
 C         -1.8175889928        5.6134012927       -1.3868182775
 C         -2.1540603388        5.5135644487        1.1015503762
 C         -3.7008936848        4.3108601183       -0.4275315840
 C         -1.7579233808        2.2108706212       -0.1348680647
 C         -0.9013305876        1.1113342118       -0.0266790687
 C         -1.3949317694       -0.2294905653        0.0130000022
 N         -2.7806677683       -0.4525945334        0.0181830332
 C         -3.3435342594       -1.2583574263       -0.9691833115
 C         -4.4637734237       -2.0534371016       -0.7270747471
 C         -4.9866562580       -2.8561084954       -1.7221009400
 C         -4.4177437752       -2.9115354192       -2.9906163178
 C         -4.9573938017       -3.7915189437       -4.1069675936
 C         -6.1928221113       -4.5919998934       -3.6834392891
 C         -5.3473149383       -2.9070235660       -5.3010301819
 C         -3.8652681709       -4.7850752456       -4.5313183124
 C         -3.2947330020       -2.1166983538       -3.2189714630
 C         -2.7662810065       -1.3049339187       -2.2395511309
 C         -3.5627815522        0.1317516996        1.0126526206
 C         -4.8819479928        0.5265675873        0.7780126745
 C         -5.6274470111        1.1028679040        1.7834844389
 C         -5.1038499888        1.3242921946        3.0575053991
 C         -5.9795479182        1.9486691623        4.1326082687
 C         -7.2042713721        1.0493537456        4.3609269930
 C         -5.2487189281        2.1073476128        5.4693483700
 C         -6.4385866531        3.3399493436        3.6709695756
 C         -3.7828813471        0.9453290413        3.2739225255
 C         -3.0251458608        0.3600834566        2.2786297892
 C         -0.5056468622       -1.3451181182        0.0474054389
 C         -0.9494815166       -2.6673526797        0.1422075837
 C         -0.0664723771       -3.7369293983        0.1348952830
 C          1.3023052407       -3.5408730916        0.0121177236
 C          2.2407094624       -4.7357435145       -0.0369554132
 C          2.1096379910       -5.5220695319        1.2762876045
 C          1.8521636710       -5.6342325437       -1.2209490403
 C          3.7086424173       -4.3325926007       -0.2074741102
 C          1.7593407075       -2.2245282381       -0.0353736911
 C          0.9009727614       -1.1225338045        0.0233367657
 C          4.8817533955       -0.4831527790        0.8435212269
 C          5.6304848359       -1.0156375230        1.8748154392
 H          6.5069822912       -1.1195412870        6.2819350917
 H          4.9086582941       -0.5411837592        5.8185965184
 H          6.3462495840        0.1927491703        5.1104272262
 H          7.3913762529       -2.8353608515        3.1440177337
 H          7.8675730210       -1.1906627643        3.6044041068
 H          7.8658227364       -2.4818786481        4.8010006927
 H          5.7727946328       -3.4730358726        5.6420948820
 H          5.2369857592       -3.8129819694        3.9950469206
 H          4.1994238403       -2.9008170824        5.0898725117
 H          3.2998019089       -0.9590045061        4.3011718308
 H          1.9818700295        0.0002940404        2.4974870008
 H          1.9202316381        0.5711681508       -2.4497402347
 H          2.8476026121        1.9055713860       -4.2502658613
 H          6.5784019865        2.1392098979       -4.6397306843
 H          6.9812671621        3.7787776523       -5.1592900125
 H          7.1010875897        3.3380180760       -3.4577521036
 H          5.5482629538        5.2674130656       -2.8383768279
 H          3.9620414635        5.3923343869       -3.5966674633
 H          5.4215266058        5.7189776273       -4.5371037795
 H          4.8299618066        4.0915108204       -6.2622683896
 H          4.3739626181        2.4371464052       -5.8696621810
 H          3.3021507926        3.7837230166       -5.4442544649
 H          5.8432059503        3.3961736724       -1.5851351017
 H          4.8945851376        2.0813306544        0.2174432982
 H          2.0026125422        2.8693319457        0.1576215263
 H          0.4731890471        4.7263844079        0.0767625745
 H         -0.8089115812        5.9944805487       -1.2526072386
 H         -2.4932474245        6.4619364223       -1.4756231370
 H         -1.8473734924        5.0484752271       -2.3167716577
 H         -1.1468767860        5.8860076024        1.2696356921
 H         -2.4262435592        4.8763003551        1.9410471934
 H         -2.8341265600        6.3628107566        1.0747165678
 H         -3.8153860674        3.7465865649       -1.3507793944
 H         -4.3204074832        5.2031137918       -0.4980184358
 H         -4.0677420251        3.7112371452        0.4023154139
 H         -2.8128498940        2.0221767122       -0.2227927212
 H         -4.9127727549       -2.0584403028        0.2559908468
 H         -5.8500762409       -3.4547447440       -1.4815365044
 H         -5.9620962149       -5.2598587530       -2.8565019747
 H         -7.0069006801       -3.9315827498       -3.3931167213
 H         -6.5346357246       -5.1991884954       -4.5194117221
 H         -4.4901129374       -2.3630817178       -5.6881677192
 H         -5.7529038426       -3.5195110253       -6.1036686896
 H         -6.1038168706       -2.1837800412       -5.0023491873
 H         -3.5698047620       -5.4031555264       -3.6855089172
 H         -4.2360918796       -5.4345767756       -5.3216441094
 H         -2.9821585785       -4.2700828604       -4.8994836963
 H         -2.8173897998       -2.1207861870       -4.1872899514
 H         -1.9001650573       -0.6929390968       -2.4466114971
 H         -5.3127096663        0.3949171841       -0.2043160215
 H         -6.6420256442        1.3955363964        1.5583236883
 H         -7.8039591661        0.9597467813        3.4592647886
 H         -7.8314855825        1.4639762967        5.1474215144
 H         -6.8879156411        0.0521898390        4.6613655615
 H         -4.9268519092        1.1430530175        5.8563521783
 H         -5.9211558114        2.5548952697        6.1986852232
 H         -4.3829136832        2.7580644324        5.3679111546
 H         -5.5783592586        3.9870771892        3.5121710617
 H         -7.0009883674        3.2854885067        2.7428845679
 H         -7.0746241948        3.7933750419        4.4284751903
 H         -3.3200329368        1.0931273142        4.2360298309
 H         -2.0053873150        0.0633510603        2.4777260044
 H         -2.0053784478       -2.8753570919        0.2186893137
 H         -0.4755077494       -4.7332889978        0.2124709963
 H          1.0976869015       -5.8940637144        1.4131273770
 H          2.7896130417       -6.3718355938        1.2765448909
 H          2.3543190124       -4.8808962538        2.1210742033
 H          1.9181840332       -5.0759402792       -2.1530632288
 H          0.8361143544       -6.0057537539       -1.1188021450
 H          2.5236634761       -6.4886066740       -1.2807131831
 H          4.3281713745       -5.2269832621       -0.2422731805
 H          3.8579913800       -3.7832310108       -1.1346592154
 H          4.0463472303       -3.7202266922        0.6256006235
 H          2.8156789472       -2.0378366510       -0.1110527614
 H          5.3212472735       -0.3801971145       -0.1383655239
 H          6.6484420220       -1.2982328574        1.6614169339
