  62
 
 O          1.5387156587       -2.8592766667        1.3538603427
 P          2.0350812695       -1.6898868548        0.6100026763
 C          3.4001091289       -0.8187051279        1.4372481732
 C          4.0878923612        0.2354717335        0.8493275070
 C          5.1109937456        0.8540365586        1.5449142234
 C          5.4504056361        0.4232563663        2.8187270837
 C          4.7672134964       -0.6313192346        3.4024251720
 C          3.7412950854       -1.2524473170        2.7115658647
 C          2.5867527681       -2.0767045546       -1.0814250125
 C          2.9194176630       -3.4004291822       -1.3395147446
 C          3.3502892302       -3.7724450202       -2.6006054064
 C          3.4470118081       -2.8213295581       -3.6039383446
 C          3.1084553833       -1.5012607225       -3.3488134699
 C          2.6769048591       -1.1243042783       -2.0892402087
 C          0.7473016870       -0.4132665629        0.3555589830
 N          1.1012663473        0.8255031161        0.0696701609
 C          0.0757523931        1.6661945470       -0.1211200212
 C          0.3941803697        3.0512117162       -0.4627869004
 C          1.6728201750        3.5488341471       -0.2115076848
 C          1.9803150680        4.8582787799       -0.5276575465
 C          1.0202378705        5.6790168457       -1.1002998391
 C         -0.2505175076        5.1874471218       -1.3588201327
 C         -0.5664622302        3.8802732887       -1.0410201165
 N         -1.1980497017        1.3176246440       -0.0241636759
 C         -1.4455121538        0.0403636474        0.2752411628
 N         -2.7346277486       -0.3644267220        0.3796105455
 C         -3.1744279875       -1.6927019263        0.5156665065
 C         -2.4540007078       -2.8697779459        0.6329927258
 C         -3.1636615228       -4.0563828596        0.7353594757
 C         -4.5530564347       -4.0809148843        0.7230233427
 C         -5.2765179034       -2.9080685209        0.6101302297
 C         -4.5838052773       -1.7110298865        0.5064119083
 C         -5.0258333012       -0.3441864164        0.3825400252
 C         -6.2877432384        0.2298683794        0.3411023557
 C         -6.3846075865        1.6055727021        0.2396700665
 C         -5.2413164817        2.3939963615        0.1913535369
 C         -3.9728322962        1.8365870368        0.2300474683
 C         -3.8699382599        0.4586119626        0.3131023918
 N         -0.4786517207       -0.8667623047        0.4658708590
 H          3.8181032955        0.5649035098       -0.1416436614
 H          5.6480560895        1.6739225322        1.0911466783
 H          6.2509062715        0.9095163009        3.3560324228
 H          5.0316347989       -0.9705460008        4.3930179543
 H          3.1937329140       -2.0796944928        3.1426272187
 H          2.8243063973       -4.1236275590       -0.5412823804
 H          3.6081707244       -4.8018816892       -2.7996037051
 H          3.7812363428       -3.1092482546       -4.5893511735
 H          3.1774723238       -0.7627139748       -4.1339226935
 H          2.3980660102       -0.0989418785       -1.8888913933
 H          2.4040149988        2.8969704537        0.2414512187
 H          2.9695440134        5.2410392560       -0.3262564931
 H          1.2629618303        6.7016817439       -1.3472282227
 H         -0.9963684851        5.8248149250       -1.8095758036
 H         -1.5472883631        3.4809664461       -1.2486872717
 H         -1.3776155325       -2.8691706279        0.6538760042
 H         -2.6149439794       -4.9814634035        0.8295704550
 H         -5.0693355635       -5.0253817971        0.8055805941
 H         -6.3553083095       -2.9172951470        0.6024691352
 H         -7.1703968448       -0.3882797879        0.3916351321
 H         -7.3561704369        2.0746221705        0.2046570948
 H         -5.3381760100        3.4672593970        0.1254900435
 H         -3.0934534297        2.4560264697        0.2043761632
