  44
 
 O          3.8757267310       -2.5066135596        1.4212379631
 C          3.5530236593       -1.4953388892        0.8113072201
 C          4.5603470124       -0.5928686066        0.2147617002
 C          5.9108485761       -0.8950409007        0.3722661467
 C          6.8870480450       -0.0767087974       -0.1681089662
 C          6.5239004488        1.0595454453       -0.8763644896
 C          5.1862337402        1.3699140976       -1.0432734397
 C          4.1931698798        0.5550130363       -0.5030639045
 C          2.7797604504        0.9270155111       -0.7050499199
 O          2.4552616185        1.9243474903       -1.3320169453
 C          1.7733246174        0.0315959976       -0.0938779939
 C          0.4298110964        0.3428581719       -0.2507439276
 C         -0.5638561714       -0.4567207742        0.3135191245
 N         -1.9048040559       -0.1313173046        0.1515745167
 C         -2.9213716135       -1.0156463589       -0.1817263190
 C         -2.8563159981       -2.3660719880       -0.4929229285
 C         -4.0328740025       -3.0094712417       -0.8320105965
 C         -5.2475345266       -2.3301916002       -0.8749162103
 C         -5.3129032504       -0.9778582225       -0.6002987401
 C         -4.1438635366       -0.3120258196       -0.2571942381
 C         -3.8491372618        1.0612500433        0.0529018539
 C         -4.6360968338        2.2002997269        0.1578206996
 C         -4.0314557346        3.3915414376        0.5095812451
 C         -2.6656560396        3.4480504342        0.7745527957
 C         -1.8631265769        2.3255895932        0.6776953746
 C         -2.4587583421        1.1335506571        0.2918536084
 C         -0.1882308045       -1.5902928414        1.0425510387
 C          1.1443459661       -1.9087781662        1.1886821448
 C          2.1448035530       -1.1126365657        0.6287441261
 H          6.1717299629       -1.7845405475        0.9272058988
 H          7.9295041119       -0.3240002561       -0.0363772345
 H          7.2821500596        1.7014219017       -1.2985710765
 H          4.8808220361        2.2486428298       -1.5925837876
 H          0.1707618539        1.2077896220       -0.8432586638
 H         -1.9201982243       -2.9027346834       -0.4895110400
 H         -4.0061648426       -4.0620454726       -1.0726224190
 H         -6.1454743296       -2.8684901004       -1.1397366421
 H         -6.2497404857       -0.4446623653       -0.6562263707
 H         -5.6983981367        2.1503378927       -0.0269776146
 H         -4.6237369059        4.2907305668        0.5925442602
 H         -2.2212122142        4.3880757819        1.0666315178
 H         -0.8103018271        2.3841975254        0.9073237271
 H         -0.9462645127       -2.1990517651        1.5104854057
 H          1.4449038079       -2.7786649357        1.7541931000
