  86
 
 C          8.5974954678       -3.4160152188       -1.3152018746
 C          8.8130183147       -2.8160909110        0.0743967257
 N          9.2124462342       -1.4343828467        0.0063682952
 C         10.5037039852       -0.9754559388       -0.0945284217
 C         11.7000858890       -1.6809500869       -0.0922115236
 C         12.8767161415       -0.9634319014       -0.1908680129
 C         12.8759872033        0.4268377750       -0.2935361582
 C         11.6919328865        1.1364524275       -0.3008067689
 C         10.4948669242        0.4377270091       -0.2018121766
 C          9.1176422888        0.8341561595       -0.1799547772
 C          8.4659719735        2.0599345026       -0.2480967588
 C          7.0898342287        2.0872992740       -0.1902439645
 C          6.3342474262        0.9094154432       -0.0745698006
 C          4.8703651286        0.9771298784       -0.0139777713
 C          4.2250471749        1.9855974699        0.7058819595
 C          2.8521700713        2.0364414298        0.7760722627
 C          2.0468393752        1.0874833143        0.1255484641
 C          0.6186121925        1.1875365994        0.2489699882
 C         -0.3021889123        0.3476962973       -0.2895558054
 C         -1.7186385919        0.4390768886       -0.1541447788
 C         -2.3793136538        1.4426723394        0.5897647154
 C         -3.7388178805        1.4866960711        0.6852320284
 C         -4.5654563893        0.5120732657        0.0604556642
 C         -5.9654584251        0.5081787357        0.2073417990
 C         -6.7292470696       -0.7198012623       -0.0195729322
 C         -7.9137517357       -0.6449637631       -0.8228213369
 C         -8.0376255641        0.3370844509       -1.8257872240
 C         -9.1812605274        0.4375041421       -2.5851709633
 C        -10.2485784055       -0.4248032258       -2.3686210486
 C        -10.1554327000       -1.3882568350       -1.3729334767
 C         -9.0123940990       -1.5019368583       -0.6129357802
 C         -6.2851973814       -1.9381484655        0.5850992797
 C         -6.5820299502       -3.1971118993        0.0221001052
 C         -6.1099769869       -4.3582230196        0.5918461857
 C         -5.3294049568       -4.3157966625        1.7401815608
 C         -5.0178421254       -3.0865444070        2.3073147940
 C         -5.4793859395       -1.9192957568        1.7428222616
 C         -6.7113407693        1.6854723386        0.5982980781
 C         -7.8702721279        1.5644377738        1.3805941785
 C         -8.6033910985        2.6754943550        1.7385093584
 C         -8.2146550210        3.9389585287        1.3161420266
 C         -7.0849500771        4.0759192963        0.5228158574
 C         -6.3409412852        2.9697371070        0.1688775342
 C         -3.8952325869       -0.5057686073       -0.6734850381
 C         -2.5366926289       -0.5287784669       -0.7808077745
 C          2.7020523104        0.0852175818       -0.6059591938
 C          4.0755982371        0.0322104632       -0.6685608985
 C          6.9760688140       -0.3237507509       -0.0138477723
 C          8.3605796286       -0.3574193215       -0.0606767437
 H          9.5175461084       -3.3696082426       -1.8933823389
 H          8.2887563220       -4.4544596887       -1.2291761614
 H          7.8278389824       -2.8635532069       -1.8493461646
 H          9.5883043410       -3.3732236938        0.6068529705
 H          7.8900933338       -2.8797074567        0.6572522075
 H         11.7212651115       -2.7578934222       -0.0181460212
 H         13.8196789777       -1.4913873848       -0.1904600853
 H         13.8176292302        0.9511512086       -0.3695356575
 H         11.6916788359        2.2136118667       -0.3821285042
 H          9.0310263705        2.9754195506       -0.3456866186
 H          6.5726952293        3.0328805122       -0.2620270913
 H          4.8142154906        2.7199406546        1.2362939251
 H          2.3779540162        2.8209176791        1.3501807466
 H          0.2778855222        2.0240111726        0.8447972355
 H          0.0412711564       -0.4894292900       -0.8836903608
 H         -1.7966624496        2.1886142001        1.1089497071
 H         -4.2037112237        2.2433796932        1.3001689531
 H         -7.2056663729        0.9992968730       -2.0154026959
 H         -9.2472060430        1.1913042992       -3.3570455717
 H        -11.1459029563       -0.3416963469       -2.9637422100
 H        -10.9895152133       -2.0498127697       -1.1852702819
 H         -8.9712591175       -2.2252219188        0.1884620334
 H         -7.1464666330       -3.2424837523       -0.8977964026
 H         -6.3404867418       -5.3098856389        0.1337072248
 H         -4.9624641189       -5.2296148071        2.1833647957
 H         -4.4103892311       -3.0449108420        3.2004327933
 H         -5.2470007927       -0.9708087216        2.2046301207
 H         -8.1726693491        0.5855409402        1.7240616369
 H         -9.4850351397        2.5604796134        2.3529577850
 H         -8.7923752205        4.8078116259        1.5951415728
 H         -6.7871571554        5.0545442641        0.1732078157
 H         -5.4861246694        3.0833590331       -0.4822667807
 H         -4.4862457590       -1.2529351768       -1.1821935570
 H         -2.0627884142       -1.3067837324       -1.3642698823
 H          2.1258084676       -0.6594051886       -1.1336784348
 H          4.5496484369       -0.7423051298       -1.2547084943
 H          6.3963858272       -1.2278511989        0.0936617911
