  85
 
 C         -8.5677752796        0.5526411665       -1.1196964842
 C         -7.6972501956       -0.0054738570        0.0063652560
 C         -8.5641374165       -0.5649814851        1.1346476254
 C         -6.7519100902       -1.0948992457       -0.5330348515
 O         -7.1454459780       -2.1461743132       -1.0563711480
 C         -5.4170903659       -0.6462364264       -0.3122966833
 C         -4.2063613852       -1.2683440147       -0.6114226667
 C         -3.0079393177       -0.6588735030       -0.2934714164
 C         -1.7585679022       -1.3897372116       -0.5081987076
 C         -0.7616573788       -1.4197940336        0.4733032779
 C          0.4201074381       -2.0975024221        0.2644868765
 C          0.6336039770       -2.7695442745       -0.9357341099
 N          1.8640078075       -3.4386009400       -1.1681957789
 C          3.0267005267       -2.7098695290       -1.3712021208
 C          3.0441990573       -1.3160943799       -1.3526429726
 C          4.2235080740       -0.6256416834       -1.5639205177
 C          5.4061021144       -1.3079664074       -1.8013068348
 C          5.4060056223       -2.6919537114       -1.8414439012
 C          4.2284327627       -3.3925218708       -1.6339190208
 O          4.2883480314       -4.7559831911       -1.7073397164
 C          3.1340088580       -5.4595492677       -1.5061940053
 C          3.2096304157       -6.8412487443       -1.5755186408
 C          2.0777027530       -7.6093199638       -1.3605845039
 C          0.8720626045       -6.9925286480       -1.0648509518
 C          0.7868235412       -5.6141408488       -0.9958336961
 C          1.9104211950       -4.8229890722       -1.2293474827
 C         -0.3605652296       -2.7782974388       -1.9094430793
 C         -1.5415287411       -2.0993917782       -1.6930756936
 C         -3.0078747664        0.6473658015        0.3077797366
 C         -1.7586768709        1.3787273998        0.5216402204
 C         -1.5423485733        2.0917049957        1.7046867347
 C         -0.3624727463        2.7731846474        1.9189341795
 C          0.6315829479        2.7633560382        0.9451264774
 N          1.8604484330        3.4362993317        1.1747673132
 C          1.9037812015        4.8210469439        1.2295354193
 C          0.7780380665        5.6086434902        0.9943333855
 C          0.8602537619        6.9874976482        1.0573158039
 C          2.0649842039        7.6083127892        1.3482826691
 C          3.1989997713        6.8437381425        1.5647052220
 C          3.1263656330        5.4615904289        1.5016573264
 O          4.2825866111        4.7615565200        1.7044191660
 C          4.2250429856        3.3975264198        1.6403806731
 C          5.4037611827        2.7003493240        1.8527378064
 C          5.4061809327        1.3161165911        1.8218491104
 C          4.2248651603        0.6302152090        1.5884294835
 C          3.0444162096        1.3172601809        1.3724300511
 C          3.0245122027        2.7110784364        1.3821537727
 C          0.4194057140        2.0867848533       -0.2527692123
 C         -0.7614891177        1.4069978281       -0.4596784126
 C         -4.2064174497        1.2569971411        0.6252108641
 C         -5.4170940226        0.6351336940        0.3254976384
 C         -6.7519786551        1.0845445826        0.5446496276
 O         -7.1455089767        2.1366351517        1.0663179119
 H         -9.1937131186       -0.2386163203       -1.5284188581
 H         -9.1992098652        1.3522696586       -0.7365892683
 H         -7.9429250052        0.9522209931       -1.9178144230
 H         -9.1915215293        0.2248646463        1.5438756301
 H         -9.1940391202       -1.3667020119        0.7533827963
 H         -7.9366356809       -0.9621090820        1.9319170610
 H         -4.2246320454       -2.2560329476       -1.0510304194
 H         -0.9323441017       -0.9218549723        1.4152582952
 H          1.1794776532       -2.1216435051        1.0318888872
 H          2.1260821443       -0.7804975591       -1.1745148837
 H          4.2179126456        0.4522321288       -1.5420494587
 H          6.3251122612       -0.7677382402       -1.9622339923
 H          6.3064327769       -3.2519321271       -2.0371258775
 H          4.1642468322       -7.2918642248       -1.7955032145
 H          2.1414567624       -8.6842094475       -1.4170448908
 H         -0.0104632042       -7.5856835563       -0.8829347943
 H         -0.1522244432       -5.1412044468       -0.7567077407
 H         -0.1959074638       -3.3053893123       -2.8377227328
 H         -2.3000995024       -2.0891702843       -2.4614156755
 H         -2.3007657773        2.0826199387        2.4731895604
 H         -0.1986630730        3.3034404710        2.8455678252
 H         -0.1603430855        5.1325839215        0.7588279112
 H         -0.0239555032        7.5778482719        0.8744458564
 H          2.1263626215        8.6835800174        1.3999617028
 H          4.1529813369        7.2974604360        1.7810457342
 H          6.3031992750        3.2631291702        2.0448946058
 H          6.3260340574        0.7785325431        1.9867540452
 H          4.2211354882       -0.4477891167        1.5736185528
 H          2.1272231511        0.7790360315        1.1975211089
 H          1.1789246492        2.1092044823       -1.0200947178
 H         -0.9314038515        0.9062666374       -1.4002754954
 H         -4.2247913607        2.2447723458        1.0646149606
