  86
 
 O         -0.0027909029        4.1227259403        0.9040712565
 S         -0.0005362416        2.9476934217        1.7725151975
 O          0.0012921607        3.2656516307        3.1915725180
 C         -1.3813443721        1.9251035738        1.3957263908
 C         -2.5834265290        2.1842532403        2.0630138562
 C         -3.7135673523        1.4645445794        1.7685076990
 C         -3.6469100329        0.4694943056        0.7837800967
 N         -4.8076026773       -0.2664100639        0.4386371945
 C         -4.9019210789       -1.6139956667        0.7460283870
 C         -3.8737040161       -2.3097789294        1.3829155096
 C         -4.0085377183       -3.6528491251        1.6737357472
 C         -5.1772300280       -4.3333152354        1.3480503262
 C         -6.2180984310       -3.6581945594        0.7374924505
 C         -6.0924541037       -2.3093583179        0.4379599186
 O         -7.1614744933       -1.6922096189       -0.1417723168
 C         -7.0513783675       -0.3680164652       -0.4481488430
 C         -8.1401060159        0.2440913379       -1.0498825296
 C         -8.0765977322        1.5793284642       -1.4059394503
 C         -6.9107473561        2.3028024326       -1.1722844897
 C         -5.8222120672        1.7049528899       -0.5703492573
 C         -5.8732034134        0.3651483572       -0.1794382786
 C         -2.4338364629        0.1951262355        0.1406633936
 C         -1.2836854508        0.9023103537        0.4450003451
 C         -0.0016191985        0.5630601092       -0.2856763613
 C         -0.0043961718        1.2334626674       -1.6567492866
 C         -0.0056974194        2.5785285027       -1.9499940924
 C         -0.0083692336        2.9626376109       -3.2870924689
 C         -0.0097780787        2.0144967887       -4.3006757104
 C         -0.0084741203        0.6610363109       -4.0077701265
 C         -0.0057357844        0.2677973093       -2.6772777768
 C         -0.0037586413       -1.0526571242       -2.0749698309
 C         -0.0040049604       -2.3202185272       -2.6412291950
 C         -0.0015783981       -3.4228408838       -1.8027795457
 C          0.0010907816       -3.2712368047       -0.4232595368
 C          0.0012797777       -2.0047532534        0.1502533362
 C         -0.0011432526       -0.9049557802       -0.6790812234
 C          1.2820467800        0.9044442641        0.4411416511
 C          2.4324806588        0.1992539507        0.1332973188
 C          3.6470719483        0.4757322515        0.7726787198
 N          4.8081289704       -0.2577694493        0.4236936068
 C          4.9059368744       -1.6054191142        0.7297263522
 C          3.8807055455       -2.3038842633        1.3685103093
 C          4.0190304554       -3.6469107132        1.6578733865
 C          5.1884007824       -4.3246648180        1.3288872429
 C          6.2264186080       -3.6468657640        0.7164717849
 C          6.0972191961       -2.2980563681        0.4182860405
 O          7.1635645145       -1.6782268400       -0.1634597279
 C          7.0498209895       -0.3541729675       -0.4690182363
 C          8.1356670904        0.2605361841       -1.0733092237
 C          8.0683246895        1.5957539427       -1.4287087543
 C          6.9014773749        2.3166045379       -1.1917852477
 C          5.8158156919        1.7161741705       -0.5872717929
 C          5.8707146433        0.3763218998       -0.1969785616
 C          3.7149775261        1.4708643799        1.7572704845
 C          2.5844879651        2.1885676541        2.0552768287
 C          1.3808172400        1.9273880485        1.3916192127
 H         -2.5815483816        2.9646353121        2.8078495664
 H         -4.6456317317        1.6584404343        2.2769020615
 H         -2.9717228173       -1.7836534147        1.6491061066
 H         -3.2005228354       -4.1720910306        2.1640364448
 H         -5.2793631594       -5.3818960079        1.5772443019
 H         -7.1429402818       -4.1528817877        0.4868526259
 H         -9.0230913494       -0.3473329100       -1.2330004705
 H         -8.9261791128        2.0518368282       -1.8719979586
 H         -6.8502277992        3.3392848045       -1.4650134116
 H         -4.9177655540        2.2672306484       -0.4008734262
 H         -2.4114264895       -0.5796441208       -0.6104041128
 H         -0.0046807122        3.3186446286       -1.1628887907
 H         -0.0093885632        4.0140011483       -3.5355332776
 H         -0.0118824809        2.3385684438       -5.3316241613
 H         -0.0095722113       -0.0733086905       -4.7996005814
 H         -0.0060250351       -2.4439011128       -3.7137832089
 H         -0.0017297449       -4.4159912446       -2.2280184859
 H          0.0029922236       -4.1452903559        0.2102052414
 H          0.0032967675       -1.8828550172        1.2239280728
 H          2.4091334852       -0.5755300614       -0.6177158666
 H          2.9782808717       -1.7798707050        1.6373393706
 H          3.2132545978       -4.1682691391        2.1496127198
 H          5.2932561733       -5.3732213482        1.5569600022
 H          7.1517152105       -4.1393892682        0.4632599713
 H          9.0194561858       -0.3289043992       -1.2589302624
 H          8.9156190498        2.0703119908       -1.8968339737
 H          6.8379613428        3.3530459710       -1.4840284293
 H          4.9105858990        2.2764232586       -0.4152873311
 H          4.6482498180        1.6664075853        2.2628150569
 H          2.5835412689        2.9689221326        2.8001474747
