110

C      9.887915   -0.645511   -1.214401
C      9.238417    0.657817   -1.732198
C      9.156954    0.546061   -3.269926
C     10.184677    1.818649   -1.356523
C      7.836608    0.927373   -1.156348
C      7.125437    2.074027   -1.539343
C      5.848162    2.367653   -1.043378
C      5.264280    1.492474   -0.110239
C      5.918642    0.320711    0.266383
C      7.209765    0.051608   -0.251679
C      5.057406   -0.394097    1.149652
C      5.181600   -1.625170    1.836165
C      4.171812   -2.098374    2.700203
C      4.350289   -3.444499    3.424657
C      3.156974   -3.832400    4.327179
C      5.603813   -3.387736    4.324286
C      4.520854   -4.574341    2.385919
C      3.040914   -1.292619    2.867892
C      2.888241   -0.069765    2.198028
C      3.894835    0.356308    1.312090
N      4.024446    1.508323    0.533171
C      3.042333    2.537462    0.412169
C      3.427026    3.881519    0.461687
C      2.481559    4.906935    0.347487
C      1.141976    4.539499    0.180683
N      0.018636    5.321197    0.044631
C     -1.108143    4.545942   -0.099516
C     -2.446066    4.921069   -0.262137
C     -3.396065    3.901262   -0.387259
C     -3.017470    2.554904   -0.352540
N     -4.005156    1.532831   -0.486795
C     -5.246069    1.518348    0.154303
C     -5.822526    2.381866    1.103772
C     -7.105251    2.097482    1.595368
C     -7.827729    0.971335    1.186984
C     -9.236555    0.648142    1.715970
C     -9.219453   -0.715500    2.439849
C    -10.231636    0.585103    0.536785
C     -9.783117    1.690413    2.717973
C     -7.207827    0.104610    0.262563
C     -5.913260    0.362639   -0.247070
C     -5.057708   -0.347337   -1.138816
C     -5.194836   -1.564664   -1.846991
C     -4.185223   -2.038131   -2.710665
C     -4.377727   -3.369129   -3.459103
C     -3.181458   -3.761656   -4.355707
C     -5.620688   -3.276582   -4.370332
C     -4.577632   -4.513312   -2.441642
C     -3.041258   -1.246368   -2.855826
C     -2.876590   -0.036204   -2.165784
C     -3.883809    0.390157   -1.280984
C     -1.668077    2.200829   -0.188285
C     -0.695847    3.215721   -0.059306
C      0.723555    3.211688    0.126203
C      1.691184    2.191270    0.244308
H     10.884655   -0.789478   -1.648605
H      9.291651   -1.526393   -1.479699
H     10.010584   -0.630536   -0.125249
H      8.466482   -0.250646   -3.571300
H     10.138391    0.318422   -3.702071
H      8.810450    1.475125   -3.735532
H      9.857522    2.774266   -1.780620
H     10.242328    1.943781   -0.268743
H     11.200597    1.635564   -1.725612
H      7.556808    2.773197   -2.253822
H      5.328624    3.251106   -1.401037
H      7.692633   -0.864294    0.072301
H      6.090154   -2.201949    1.686462
H      2.996350   -3.095725    5.122946
H      3.328659   -4.799569    4.814893
H      2.228304   -3.921941    3.751440
H      6.521529   -3.227860    3.747583
H      5.733785   -4.323634    4.880302
H      5.528285   -2.573460    5.054769
H      3.659550   -4.620655    1.708895
H      4.613478   -5.550844    2.875495
H      5.416468   -4.439887    1.769508
H      2.234947   -1.585664    3.536338
H      2.004681    0.531981    2.388769
H      4.465193    4.158667    0.634551
H      2.783985    5.948192    0.398391
H      0.020753    6.330442    0.049999
H     -2.743859    5.964099   -0.301856
H     -4.433107    4.184878   -0.556651
H     -5.291131    3.251062    1.479402
H     -7.513877    2.794450    2.322772
H     -8.954323   -1.538346    1.767270
H    -10.203630   -0.951468    2.861656
H     -8.494929   -0.716427    3.262886
H    -10.244574    1.530039   -0.019310
H     -9.983020   -0.210971   -0.173680
H    -11.251351    0.391743    0.890014
H     -9.854922    2.686225    2.264962
H    -10.789200    1.419586    3.060573
H     -9.149097    1.764738    3.609410
H     -7.716433   -0.795398   -0.072304
H     -6.112813   -2.130675   -1.713520
H     -3.362963   -4.718429   -4.859956
H     -2.260115   -3.874820   -3.772336
H     -3.001351   -3.015424   -5.138363
H     -6.541339   -3.111692   -3.800063
H     -5.524607   -2.451555   -5.086163
H     -5.760541   -4.200858   -4.943138
H     -4.684289   -5.479263   -2.949226
H     -5.475469   -4.373024   -1.829934
H     -3.722568   -4.587835   -1.759103
H     -2.233843   -1.540962   -3.521585
H     -1.982937    0.555590   -2.340666
H     -1.359635    1.162045   -0.116602
H      1.377940    1.154658    0.161594
