  53
 
 C          9.1150523091        0.0229921655       -0.2368758821
 C          8.4565277558       -0.8245708509        0.6387100688
 C          7.0747703785       -0.8361409403        0.6887612302
 C          6.3307673345       -0.0027318697       -0.1432469963
 C          4.8623345978       -0.0118322380       -0.1024933348
 C          4.0989166489        0.0204557792       -1.2620830600
 C          2.7075391075        0.0127999490       -1.2409128433
 C          1.9818746991       -0.0091916738       -0.0595863804
 C          0.5174469609       -0.0086769917       -0.0469937919
 C         -0.1977382509       -0.7066842112       -1.0211443805
 C         -1.5775153468       -0.7061646380       -1.0228845048
 C         -2.2785318804       -0.0028660057       -0.0462845639
 N         -3.6803124440        0.0007788056       -0.0466670553
 C         -4.4921272397       -1.1154480047       -0.1019473438
 C         -4.1471181571       -2.4597665026       -0.1176996749
 C         -5.1700476309       -3.3885989808       -0.1451893103
 C         -6.5078348319       -2.9981113362       -0.1485500772
 C         -6.8575548415       -1.6628699087       -0.1093401233
 C         -5.8468782684       -0.7102292955       -0.0805790128
 C         -5.8425783264        0.7248276029       -0.0146068412
 C         -6.8474865393        1.6836205177        0.0123746298
 C         -6.4896612154        3.0166822177        0.0524655656
 C         -5.1494846475        3.3989707713        0.0527170201
 C         -4.1321915559        2.4639176720        0.0271262503
 C         -4.4854363003        1.1217674414        0.0095379184
 C         -1.5726311307        0.6939988553        0.9313284261
 C         -0.1928773132        0.6890172782        0.9299248508
 C          2.7316396390       -0.0287147219        1.1328912173
 N          2.2537458941       -0.0501093273        2.4011107653
 N          3.1187789677       -0.0652305888        3.2962262167
 S          4.7000469377       -0.0649395753        2.7381520514
 C          4.1500388226       -0.0447973868        1.0972263153
 C          7.0018370258        0.8421731295       -1.0254452997
 C          8.3836568767        0.8564413641       -1.0675736009
 H         10.1944192967        0.0339257966       -0.2714549711
 H          9.0204514172       -1.4807834990        1.2854132959
 H          6.5687149490       -1.5128402043        1.3622259864
 H          4.6064236759        0.0356176841       -2.2149737420
 H          2.1772039506        0.0488980289       -2.1803379704
 H          0.3314627086       -1.2718197467       -1.7737301000
 H         -2.1209800775       -1.2416176284       -1.7871279873
 H         -3.1141827478       -2.7731830260       -0.0975083986
 H         -4.9271466150       -4.4412916350       -0.1599058736
 H         -7.2786692181       -3.7545682740       -0.1723829568
 H         -7.8943428937       -1.3610635610       -0.0953117905
 H         -7.8860600567        1.3881228030       -0.0030570395
 H         -7.2558828921        3.7778405993        0.0752321118
 H         -4.9002054501        4.4501376182        0.0694884151
 H         -3.0972297922        2.7708659626        0.0125101761
 H         -2.1122960910        1.2260893376        1.7003513165
 H          0.3437623526        1.2275820300        1.6948872414
 H          6.4353551490        1.5052913413       -1.6629843987
 H          8.8922352991        1.5220278711       -1.7497797636
