  79
 
 C          0.8539108935        1.4025058898        3.0215728966
 C          2.1892028212        1.5273302408        2.6905003121
 C          2.7565052399        0.6807143539        1.7516365631
 C          1.9780729898       -0.2725766344        1.0772619503
 C          2.5468122783       -1.2817455272        0.2481207205
 N          3.8974216016       -1.2643859340       -0.0835291402
 C          4.7851378042       -2.3066007927        0.1001913653
 C          4.5927374208       -3.5251244146        0.7372637779
 C          5.6686328796       -4.3890320584        0.8141095681
 C          6.9124039910       -4.0506640978        0.2855974217
 C          7.1184059922       -2.8259369891       -0.3211238163
 C          6.0524510679       -1.9432476747       -0.4129514254
 C          5.9110736910       -0.6135194323       -0.9404160974
 C          6.7811459249        0.2546274635       -1.5836343212
 C          6.3004672484        1.4799604687       -2.0043761678
 C          4.9679890088        1.8336991443       -1.8034953010
 C          4.0815867091        0.9888322252       -1.1629893756
 C          4.5670724236       -0.2330265933       -0.7158111243
 C          1.7517955308       -2.3859740682       -0.1674818513
 C          0.4080616136       -2.3861643096        0.0112462511
 C         -0.2429603335       -1.2401732562        0.5893161477
 C         -1.6059652499       -1.0766563481        0.3128886327
 N         -2.4183722032       -2.1073937030        0.0382429388
 C         -3.6286977384       -1.5912572651       -0.1738910042
 C         -4.8413715352       -2.2991130506       -0.4196274880
 C         -4.8637268928       -3.6962907202       -0.4345979291
 C         -6.0456726001       -4.3702223662       -0.6298411207
 C         -7.2213504476       -3.6459777906       -0.8048948361
 C         -7.2086344601       -2.2685516017       -0.7992547732
 C         -6.0210179328       -1.5461678755       -0.6169874163
 C         -5.9642720707       -0.0943278367       -0.6520851184
 C         -7.0947616082        0.6740296527       -0.9497765125
 C         -7.0455167294        2.0469874381       -1.0408274765
 C         -5.8367407038        2.7142914164       -0.8585236145
 C         -4.7053498913        2.0019311282       -0.5540522892
 C         -4.7387637945        0.6013135817       -0.4160826657
 C         -3.6012407160       -0.1775533944       -0.0982341659
 N         -2.3078307437        0.1409913216        0.2282441274
 C         -1.6902782418        1.3963577962        0.3368467858
 C         -2.1236382548        2.3333085306        1.2732246245
 C         -1.4036660340        3.4930861374        1.4660599163
 C         -0.2396888519        3.7318865835        0.7456278756
 C          0.1585079850        2.8232653901       -0.2406249497
 C         -0.5706221777        1.6618797692       -0.4396387072
 O          1.2652976342        3.0279231188       -1.0192805800
 C          1.7860762127        4.3357371800       -0.9271468427
 C          1.8101791512        4.7878211243        0.5311019270
 O          0.4951549154        4.8502329085        1.0375706711
 C          0.5804489109       -0.3126531527        1.3320550590
 C          0.0634139561        0.4692291920        2.3585384589
 H          0.4187329860        2.0234370724        3.7897368418
 H          2.8069343502        2.2608633302        3.1893638963
 H          3.8161886704        0.7427534659        1.5544756271
 H          3.6391680262       -3.7848988377        1.1706033317
 H          5.5440034449       -5.3451622293        1.3003129381
 H          7.7282305227       -4.7536563733        0.3640428592
 H          8.0881493347       -2.5562580857       -0.7114573827
 H          7.8086218112       -0.0279318252       -1.7563581917
 H          6.9611628425        2.1714215916       -2.5060168895
 H          4.6177087476        2.7892398853       -2.1656084559
 H          3.0495894796        1.2702215223       -1.0217624088
 H          2.2360432767       -3.1923537140       -0.6973989073
 H         -0.2190925502       -3.1757444363       -0.3675497437
 H         -3.9311385681       -4.2163320453       -0.2809222559
 H         -6.0677090928       -5.4497109686       -0.6410311468
 H         -8.1563312464       -4.1684760647       -0.9475235851
 H         -8.1457338650       -1.7525378690       -0.9356096486
 H         -8.0407723591        0.1886767137       -1.1279064869
 H         -7.9411910016        2.6043400899       -1.2714474210
 H         -5.7888283276        3.7881904429       -0.9616291828
 H         -3.7672664040        2.5204059388       -0.4397620129
 H         -3.0016207377        2.1330714193        1.8682187745
 H         -1.7053202150        4.2191413063        2.2034282955
 H         -0.2367608465        0.9612092178       -1.1884217680
 H          2.7915122122        4.2991296207       -1.3478897499
 H          1.1647978945        5.0277543066       -1.5120399773
 H          2.2298345594        5.7894158326        0.6311839580
 H          2.4026006426        4.0725283315        1.1179731698
 H         -0.9675888912        0.3410551428        2.6506764851
