  124
 
 C          7.4133103475        3.8734119482       -0.6145799114
 C          6.8904595279        3.3161508343        0.7128884717
 C          6.4203038433        4.4989295542        1.5729587897
 C          8.0436288665        2.5853759299        1.4166777998
 C          5.7314392962        2.3489387840        0.5260189990
 C          5.1208615412        1.7839786252        1.6442020753
 C          4.0512330721        0.9174250481        1.5260339021
 C          3.5631116545        0.5863553111        0.2699591029
 N          2.4320569027       -0.2746901307        0.1377657067
 C          2.6500828180       -1.6261757293       -0.0574523418
 C          3.9687692884       -2.0969455549       -0.1065118587
 C          4.2393395024       -3.4153393992       -0.3793189714
 C          3.2145047343       -4.3279962158       -0.6426322737
 C          3.5684310612       -5.7625724800       -1.0075156054
 C          2.3338340311       -6.6206381399       -1.2978011968
 C          4.3312924965       -6.4040308150        0.1613851535
 C          4.4522725055       -5.7588849010       -2.2640030683
 C          1.9181385063       -3.8594426377       -0.5474653905
 C          1.5845945369       -2.5377397379       -0.2192611150
 B          0.1434971746       -2.0005444005       -0.0495401924
 C         -1.2060467910       -2.7454725930        0.0842750492
 C         -1.3453904481       -4.1202363902        0.3221216496
 C         -2.5614741867       -4.7716728397        0.3990164054
 C         -2.7037481300       -6.2652724007        0.6546455137
 C         -1.3536971804       -6.9689998128        0.8187014047
 C         -3.5147970626       -6.4813218233        1.9410332332
 C         -3.4343456366       -6.9097431351       -0.5332507947
 C         -3.7093354545       -3.9940474358        0.2249510975
 C         -3.6304927135       -2.6360301624        0.0372926912
 C         -2.3911076590       -1.9842355772       -0.0077299891
 N         -2.3671938996       -0.6067642921       -0.1280495941
 C         -3.6094886585        0.0908161066       -0.2199745541
 C         -4.2704500421        0.5024097672        0.9275497095
 C         -5.4557632327        1.2103743440        0.8350006463
 C         -6.0137228557        1.5268705998       -0.3984832067
 C         -7.3048350008        2.3180884255       -0.5426606845
 C         -7.8936578081        2.7373121823        0.8077253325
 C         -7.0207446686        3.5909212837       -1.3542844324
 C         -8.3435032971        1.4539853039       -1.2732138524
 C         -5.3428068859        1.0925325869       -1.5402067172
 C         -4.1573732187        0.3873577115       -1.4600008932
 C         -1.2203287712        0.1536809467       -0.0531971726
 C         -1.3114366862        1.5438871689       -0.0529333342
 C         -0.1618329582        2.3148081541        0.0659554489
 N         -0.2604089270        3.7140359149        0.0969579463
 C          0.7257403268        4.4977699223       -0.5104767889
 C          1.1418705875        5.6930312456        0.0771997003
 C          2.1228335170        6.4604121595       -0.5206034783
 C          2.7121629536        6.0492824908       -1.7053297108
 C          2.3016982701        4.8644971605       -2.2950346153
 C          1.3149205819        4.0955873079       -1.7097124938
 C         -1.3471150642        4.3234051637        0.7318363594
 C         -1.8733144514        3.7891572267        1.9086093591
 C         -2.9591805470        4.3838675505        2.5207091412
 C         -3.5337606242        5.5232400325        1.9804438040
 C         -3.0085179888        6.0657784577        0.8186501394
 C         -1.9283322171        5.4724797936        0.1943360857
 C          1.0848682387        1.7081749358        0.1546489069
 C          1.1899397926        0.3205357162        0.0888169474
 C          0.0361907639       -0.4881787862       -0.0024378801
 C          4.1691906841        1.1249790196       -0.8549945089
 C          5.2382824369        1.9936790276       -0.7244344110
 H          7.7953825921        3.0787228687       -1.2513294501
 H          6.6322327603        4.4140894146       -1.1446274547
 H          8.2291099568        4.5665140732       -0.4189759998
 H          6.1047365547        4.1736793859        2.5603366945
 H          5.5811878086        5.0009218887        1.0949496841
 H          7.2291601493        5.2163964436        1.6941061260
 H          8.8859927690        3.2604213829        1.5519227340
 H          7.7418942475        2.2169566468        2.3933651327
 H          8.3730699839        1.7375473417        0.8189621250
 H          5.4773360775        2.0236663372        2.6343634796
 H          3.5852334942        0.4962657434        2.4052329227
 H          4.7908932774       -1.4159374151        0.0587162457
 H          5.2723900593       -3.7301230832       -0.4069196493
 H          2.6461303673       -7.6271183243       -1.5709268227
 H          1.7570661304       -6.2104182434       -2.1239923711
 H          1.6980632960       -6.6943715213       -0.4189940671
 H          3.7179043407       -6.3951171648        1.0606595224
 H          5.2530416955       -5.8686105807        0.3736133070
 H          4.5832255642       -7.4362273613       -0.0747643931
 H          4.6951830204       -6.7788866004       -2.5562378184
 H          5.3829229721       -5.2242830109       -2.0931572589
 H          3.9296328821       -5.2779008820       -3.0889186864
 H          1.1010132164       -4.5265821735       -0.7578719292
 H         -0.4389802427       -4.6790736292        0.4741321478
 H         -0.7961473364       -6.5578658612        1.6575016735
 H         -0.7580928760       -6.8788067323       -0.0865725268
 H         -1.5166348636       -8.0283467720        1.0094158693
 H         -4.5074622673       -6.0461012038        1.8608451562
 H         -3.6242665996       -7.5453033208        2.1427177213
 H         -3.0079917021       -6.0196528312        2.7866613116
 H         -2.8799851269       -6.7363541268       -1.4538805781
 H         -4.4328097601       -6.4983101432       -0.6552823384
 H         -3.5251662882       -7.9836784795       -0.3813405360
 H         -4.6883222114       -4.4499758154        0.2541335762
 H         -4.5429820491       -2.0668519162       -0.0637526727
 H         -3.8486465929        0.2693325959        1.8946667763
 H         -5.9344573505        1.5172413908        1.7500001009
 H         -8.8075018757        3.3046625513        0.6427642675
 H         -8.1437149831        1.8694460653        1.4137730952
 H         -7.1993378570        3.3701646058        1.3560581862
 H         -7.9256955072        4.1887843277       -1.4395176950
 H         -6.6742729268        3.3551272395       -2.3566554517
 H         -6.2562624013        4.1883809298       -0.8610013571
 H         -9.2794736133        1.9995421446       -1.3727103445
 H         -8.5343566052        0.5403818345       -0.7132555882
 H         -8.0023678461        1.1791871188       -2.2675347501
 H         -5.7434243976        1.3093302165       -2.5186895198
 H         -3.6477396058        0.0653714195       -2.3567313347
 H         -2.2668875412        2.0375228270       -0.1308277715
 H          0.6925069421        6.0114695217        1.0069341479
 H          2.4370750671        7.3815946057       -0.0510638242
 H          3.4831074650        6.6486565972       -2.1663049007
 H          2.7489425104        4.5388809391       -3.2232941590
 H          0.9902119551        3.1768935571       -2.1760108479
 H         -1.4221854625        2.9051988929        2.3352241231
 H         -3.3554761007        3.9578270746        3.4312729361
 H         -4.3819375230        5.9865933998        2.4622505073
 H         -3.4500459607        6.9531007442        0.3878470192
 H         -1.5286796602        5.8916866423       -0.7179098070
 H          1.9614450683        2.3273652273        0.2587788207
 H          3.7944518883        0.8647407440       -1.8345071086
 H          5.6761022278        2.3956851021       -1.6229189317
