  45
 
 O          3.7436609524       -2.6080971284       -0.8170789780
 S          2.8861664128       -1.4525877306       -1.0108722069
 O          2.4416135766       -1.1765610712       -2.3659595838
 C          3.6837096825       -0.0157156956       -0.3564446564
 C          4.6444700365       -0.1296337068        0.6556937229
 C          5.1165291045        1.0291622742        1.2375058621
 C          4.6084112166        2.2498908716        0.8013115650
 N          3.6889402688        2.3568398398       -0.1632511124
 C          3.2414334987        1.2541093723       -0.7193495408
 C          1.4655783733       -1.5878703817        0.0372158246
 C          1.5503425014       -2.2580744277        1.2617491125
 C          0.4927609322       -2.2051763318        2.1413401231
 C         -0.6545496121       -1.4760943061        1.8295483604
 C         -0.7217022350       -0.8012350313        0.6042147739
 N         -1.8823486179       -0.0464376024        0.2804540158
 C         -1.8111065554        1.3237698416        0.2303852176
 C         -0.6471873927        2.0407331488        0.5418924912
 C         -0.6303432777        3.4116582311        0.4686834474
 C         -1.7828154115        4.1250803988        0.0870968952
 C         -2.9471742205        3.4516408312       -0.2018258666
 C         -2.9861861525        2.0611788419       -0.1306631726
 O         -4.1513101467        1.4388348363       -0.4020646454
 C         -4.2105553110        0.0929310224       -0.3422583828
 C         -5.4233019666       -0.5289224531       -0.6316136529
 C         -5.5190310898       -1.9008624236       -0.6036989854
 C         -4.3874509441       -2.6813343979       -0.2997497292
 C         -3.1827916530       -2.0879132561       -0.0108869941
 C         -3.0602022223       -0.6919752455       -0.0054370434
 C          0.3300401552       -0.8497481597       -0.2893183784
 H          4.9967496074       -1.1104034351        0.9351794841
 H          5.8642018616        0.9959104820        2.0148292515
 H          4.9416831757        3.1854651815        1.2267133537
 H          2.5058185592        1.3622663122       -1.5051523036
 H          2.4468690789       -2.8168533758        1.4768354843
 H          0.5477123649       -2.7261801147        3.0845831170
 H         -1.4790917137       -1.4195800245        2.5212700892
 H          0.2394116600        1.5022732674        0.8365098760
 H          0.2753980238        3.9456375886        0.7055041777
 H         -1.7514226550        5.2006484387        0.0288743212
 H         -3.8483492614        3.9719605426       -0.4845957598
 H         -6.2684756573        0.0940279482       -0.8772326117
 H         -6.4576582363       -2.3816867600       -0.8256933293
 H         -4.4664883922       -3.7564051801       -0.2987732952
 H         -2.3162440427       -2.6901056376        0.2098728146
 H          0.2899810310       -0.3514302687       -1.2449309822
