97
 xtb: 6.7.1 (edcfbbe)
C            2.33491071048653        2.70357111637818       -3.49766346535179
C            2.31034419551076        3.48866818058087       -2.18954192611530
C            1.05849963037870        4.35869392877293       -2.08116784652940
C            1.01090952558572        5.20382808351055       -0.80580958902234
C            0.83243516974297        4.40187379077993        0.48560859381041
C           -0.53039759254576        3.71557686222744        0.57304975310691
C           -0.82668804972085        3.12230157454846        1.95029243253186
C            0.09855204466480        1.96489524846346        2.33305288742456
N            0.00308918393076        0.86041790275770        1.40349495270329
C           -1.09138002486897        0.00587365670259        1.34935324116298
O           -2.02367462132693        0.03442511272114        2.12110024884762
C           -0.79668691790913       -0.91894250758451        0.24918899669346
C           -1.39707781944628       -1.97988988672693       -0.36547566454368
C           -2.73544123314128       -2.52630788561235       -0.21428901879429
C           -2.90247715478750       -3.90766732879546       -0.11676447465760
C           -4.15115155827141       -4.46018317679799        0.08758927001095
C           -5.26215200857802       -3.63588821244952        0.17850175809899
C           -5.12172952482928       -2.26768397584276        0.03980322144554
C           -3.86884702846347       -1.69673683176405       -0.16159587296608
N           -3.76820059768970       -0.31302265457648       -0.35791270680713
C           -3.13668848936599        0.31132265183828       -1.41409647341426
C           -2.56786167382648       -0.24054884103350       -2.55371670684117
C           -2.01554289082444        0.62004306140436       -3.48358663725577
C           -2.04176127230452        2.00111376457726       -3.30118801068012
C           -2.65106619974488        2.55798839576106       -2.19376034991898
C           -3.21063967147501        1.71268428456229       -1.24354950847514
C           -3.94294589304059        1.93635049903094       -0.02801946121590
C           -4.33724416824278        3.08284289058642        0.65079418158377
C           -5.04669807644175        2.94380491587611        1.82678506151250
C           -5.35279334173908        1.68183574643264        2.33281529122888
C           -4.97248858782778        0.52809270680674        1.67517036682697
C           -4.27517583717078        0.66211891135149        0.48391652866405
S           -0.27966199288484       -2.68873219779160       -1.50618974361108
C            0.98675476183175       -1.53072170534047       -1.14293016538699
C            2.28432988373375       -1.66294679703458       -1.78476003774546
C            2.33620125549594       -1.93866229849710       -3.15203894676649
C            3.54236069526151       -2.04392929758240       -3.81468293696463
C            4.72788287669312       -1.90103023023519       -3.11021124702144
C            4.69799390810912       -1.66984407409828       -1.74800694805358
C            3.48913262392554       -1.54779597873553       -1.06832571471992
N            3.50806185119834       -1.34585738894862        0.31756418684305
C            4.18647380909517       -0.32813307223535        0.96797732956842
C            5.01682398959200        0.65482364246953        0.45089931036795
C            5.55719337140316        1.57222031577819        1.33104850251762
C            5.27882931595130        1.52499320639489        2.69544764858286
C            4.43735185199103        0.56109762733029        3.21323959362619
C            3.88431170045944       -0.37380655337542        2.34714790992029
C            2.98359335631829       -1.47717313620295        2.53378364533435
C            2.35209566505716       -2.01976065905453        3.64598917879277
C            1.56191248185543       -3.14000164262559        3.47987314117401
C            1.42585902319005       -3.73967699704276        2.22957369453658
C            2.04144232421902       -3.21637577846837        1.10864736482509
C            2.79110008471715       -2.05737706688833        1.25900886619029
C            0.52760095730285       -0.65223899173094       -0.20354505060426
C            1.00220282658233        0.55111119509456        0.48672376510480
O            2.00818407302125        1.20127416583756        0.32824367970564
H            3.33143400102333        2.10879775134730       -3.54066727011636
H            1.56922426283864        2.04313634499191       -3.58735426419758
H            2.42165446281833        3.38910763660708       -4.34883839765191
H            2.38400511868007        2.78011872269252       -1.35641627401466
H            3.23523482397741        4.13192120041385       -2.10333988712860
H            1.06694737899341        5.00723683657027       -2.97263372877847
H            0.21741414102385        3.69221089210371       -2.16522042990761
H            0.18801855641592        5.90129049203483       -0.94141628553226
H            1.93847188352265        5.78292930091445       -0.76194182814968
H            1.62988331168816        3.66690458599631        0.54466541416982
H            0.92738274884527        5.09914058554026        1.29807806523241
H           -0.58947739548267        2.92081529343750       -0.20254121828024
H           -1.30790568330374        4.44447067166857        0.30667156773038
H           -0.73634556347182        3.91244978068351        2.68100735678785
H           -1.85904422283449        2.76693839250295        1.93783982045352
H           -0.18432893034781        1.61322158942951        3.31059994873725
H            1.13922858903604        2.29772181801737        2.32621820959101
H           -2.02101823211045       -4.53838954894542       -0.18927834316341
H           -4.24520254453756       -5.53518445836421        0.16957676640578
H           -6.23286387345232       -4.07087168147443        0.34142154518734
H           -5.98638657231119       -1.63371189052932        0.07564979468788
H           -2.57606674852659       -1.29554144833444       -2.71752161151797
H           -1.58647797301469        0.23511892173991       -4.37255612221993
H           -1.64502884484027        2.66309910753698       -4.04375192505357
H           -2.74676575998491        3.63813807513496       -2.05750940518915
H           -4.12119933982755        4.05421020389191        0.28448940567324
H           -5.38610929135043        3.80390403659879        2.39434710607446
H           -5.90237333701872        1.57999204562016        3.28427026043223
H           -5.18743615135158       -0.46046660472849        2.10381238547529
H            1.41280064077119       -2.03569605220841       -3.69541272431645
H            3.56531301338372       -2.23061377276329       -4.87526288420099
H            5.68192103095464       -1.98491344235571       -3.61336299938268
H            5.61925246238592       -1.60537601700591       -1.18078246690257
H            5.22271365737449        0.71744804277741       -0.59736579396333
H            6.20854219503117        2.34192418883825        0.96595346231795
H            5.71553110258103        2.25260531307980        3.36449577058057
H            4.19703223653438        0.52525935804367        4.27437755091148
H            2.47512548299155       -1.58316168742750        4.62036463264308
H            1.04739009420838       -3.57958830970836        4.32433064527569
H            0.82780260094822       -4.64155022697952        2.12800666764124
H            1.95453875501011       -3.70851960173894        0.14592055919068
