  80
 
 C          7.2382717572       -2.9844037177        0.3586316608
 C          7.0474829388       -2.0986051397       -0.6896469734
 C          5.8909768265       -1.3454561163       -0.7641730831
 C          4.9030744624       -1.4656803090        0.2118546423
 C          3.6585533597       -0.6852922029        0.1295995575
 C          2.4417096212       -1.3541979875        0.2784342367
 C          1.2209584345       -0.7003313705        0.1711650237
 N          0.0542701076       -1.3143098299        0.3904105991
 C         -1.1029448794       -0.6696792154        0.2164921739
 N         -2.2855318272       -1.3621153525        0.4743418174
 C         -3.2470648773       -0.7890281547        1.3135178166
 C         -4.6065586551       -1.0328698371        1.1098818409
 C         -5.5457174584       -0.4511197905        1.9381720658
 C         -5.1518019992        0.3899395931        2.9679664263
 C         -3.8039173913        0.6350948273        3.1745780168
 C         -2.8564912626        0.0465777153        2.3592441491
 C         -2.3909719541       -2.6834662925        0.0294995243
 C         -1.7342183129       -3.0896092623       -1.1323975079
 C         -1.8132860056       -4.4006220602       -1.5597519022
 C         -2.5472923608       -5.3303685876       -0.8416680220
 C         -3.1907106937       -4.9367842699        0.3211719391
 C         -3.1134488802       -3.6297055239        0.7595896817
 C         -1.1041483948        0.6669594958       -0.2172088528
 N         -2.2879202339        1.3569533476       -0.4759782736
 C         -2.3960513190        2.6785066925       -0.0323966125
 C         -3.1199796946        3.6226386744       -0.7637773484
 C         -3.1997664519        4.9300472133       -0.3268089818
 C         -2.5576474458        5.3259947583        0.8359494028
 C         -1.8224027275        4.3983039776        1.5554296427
 C         -1.7407306066        3.0869843250        1.1294821459
 C         -3.2479354946        0.7816125833       -1.3153957324
 C         -4.6080018800        1.0224622287       -1.1120949055
 C         -5.5456688906        0.4384550870       -1.9404930370
 C         -5.1496165336       -0.4018785522       -2.9700626649
 C         -3.8011372102       -0.6439358702       -3.1764306292
 C         -2.8552217725       -0.0531204059       -2.3609962840
 N          0.0518753661        1.3139179012       -0.3902719309
 C          1.2196618366        0.7022816886       -0.1702911127
 C          2.4391627755        1.3585536920       -0.2769719593
 C          3.6572641068        0.6920170279       -0.1277235557
 C          4.9002959186        1.4747911790       -0.2097572752
 C          5.8884059861        1.3563929565        0.7662913117
 C          7.0434196404        2.1118538593        0.6918944480
 C          7.2325600475        2.9980583421       -0.3563346799
 C          6.2531515006        3.1303883464       -1.3269182053
 C          5.0946171542        2.3794441655       -1.2520766495
 C          5.0990730027       -2.3699084348        1.2542259827
 C          6.2590530899       -3.1186211319        1.3291441035
 H          8.1443124540       -3.5695116628        0.4171858566
 H          7.8032338672       -1.9949974432       -1.4549190200
 H          5.7427259898       -0.6640887385       -1.5891701514
 H          2.4275319231       -2.4202519565        0.4490134726
 H         -4.9140913613       -1.6700513053        0.2946886082
 H         -6.5938833759       -0.6475865947        1.7711742246
 H         -5.8898947337        0.8490560881        3.6071818231
 H         -3.4858104834        1.2806895719        3.9794310107
 H         -1.8028916869        0.2107337529        2.5367460920
 H         -1.1604913738       -2.3736676739       -1.7001651058
 H         -1.2996667315       -4.6950711706       -2.4630415804
 H         -2.6114596649       -6.3527829620       -1.1806398528
 H         -3.7498480792       -5.6562910779        0.9005870756
 H         -3.5938203822       -3.3410613769        1.6823144829
 H         -3.5992810269        3.3321354224       -1.6864791296
 H         -3.7598701700        5.6479472055       -0.9072863834
 H         -2.6237517942        6.3486697042        1.1737669952
 H         -1.3098787148        4.6946131006        2.4587324936
 H         -1.1662328211        2.3725952974        1.6984325727
 H         -4.9171018894        1.6590157640       -0.2969974673
 H         -6.5943164382        0.6325644745       -1.7737665264
 H         -5.8865217458       -0.8626434221       -3.6094656114
 H         -3.4813863447       -1.2886878447       -3.9813137675
 H         -1.8012029500       -0.2147220627       -2.5383580544
 H          2.4229632053        2.4245850767       -0.4475096553
 H          5.7414422644        0.6747127426        1.5912599969
 H          7.7993736294        2.0096010698        1.4571491999
 H          8.1375045401        3.5848695127       -0.4148510253
 H          6.3926508606        3.8211132745       -2.1463279142
 H          4.3367789988        2.4750709703       -2.0171760626
 H          4.3413928600       -2.4669342643        2.0193036423
 H          6.3998985859       -3.8089806708        2.1486178606
