  66
 
 C          0.6039415224       -0.0009036553        0.0004186396
 C         -0.6037668599       -0.0020639302        0.0003075984
 C         -2.0162302739       -0.0019303701        0.0005891981
 C         -2.7202858434       -0.8963074495        0.8089674636
 C         -4.0995874920       -0.8918805780        0.8114411547
 C         -4.7992907531       -0.0016775462        0.0008384030
 N         -6.2111351889       -0.0016682584        0.0008177365
 C         -6.9203883907        1.1138626347        0.4501253105
 C         -6.2872527221        2.2406901601        0.9589231960
 C         -7.0226424779        3.3317845816        1.3973239036
 C         -8.4010985432        3.3110331537        1.3443644677
 C         -9.0495518033        2.1813234377        0.8664691864
 C         -8.3215770641        1.0906086382        0.4303504145
 O         -9.0343418528       -0.0013931454       -0.0000051322
 C         -8.3215360043       -1.0936198513       -0.4297435745
 C         -9.0494820532       -2.1842777053       -0.8660518879
 C         -8.4009874654       -3.3142149023       -1.3433514538
 C         -7.0225085778       -3.3352292522       -1.3955638064
 C         -6.2871528973       -2.2441792548       -0.9570013627
 C         -6.9203400877       -1.1171345884       -0.4487412612
 C         -4.0995737064        0.8884539172       -0.8098404030
 C         -2.7202817082        0.8925929067       -0.8076506955
 C          2.0164113439       -0.0005754036        0.0003876578
 C          2.7201798249        0.9224100748        0.7762206770
 C          4.0994816777        0.9188833034        0.7783863277
 C          4.7993796873        0.0006951083       -0.0001660936
 N          6.2112792449        0.0015328933       -0.0006772895
 C          6.9213034591       -1.0957550125        0.4902567025
 C          6.2888770074       -2.2031509745        1.0408532320
 C          7.0250189845       -3.2763685696        1.5202147717
 C          8.4034685139       -3.2564473575        1.4668991439
 C          9.0511837019       -2.1450722278        0.9468256488
 C          8.3224794247       -1.0721687641        0.4697059973
 O          9.0344075211        0.0033331747       -0.0016940295
 C          8.3207737808        1.0780069818       -0.4724025624
 C          9.0477709683        2.1519250789       -0.9498476759
 C          8.3982749060        3.2625572343       -1.4692865349
 C          7.0197667022        3.2807030531       -1.5216763460
 C          6.2853353711        2.2064573163       -1.0419941282
 C          6.9195544610        1.0998002609       -0.4919724755
 C          4.0999959290       -0.9182033056       -0.7783363133
 C          2.7206940566       -0.9229873268       -0.7756444116
 H         -2.1759642028       -1.5852146201        1.4378535363
 H         -4.6467440930       -1.5766150996        1.4427447350
 H         -5.2104480334        2.2644369310        1.0205877468
 H         -6.5034925173        4.1956858003        1.7832309957
 H         -8.9778188874        4.1584876162        1.6797450818
 H        -10.1257070786        2.1247989915        0.8286861588
 H        -10.1256466942       -2.1275245842       -0.8288987777
 H         -8.9776797599       -4.1616364359       -1.6788606854
 H         -6.5032996537       -4.1993048165       -1.7810009694
 H         -5.2103260556       -2.2681507090       -1.0181302460
 H         -4.6467355815        1.5732610731       -1.4410592093
 H         -2.1759216797        1.5813415601       -1.4366755796
 H          2.1756039551        1.6329557440        1.3803222915
 H          4.6465071465        1.6260317036        1.3845943594
 H          5.2120628195       -2.2253885050        1.1029676717
 H          6.5064619589       -4.1255645730        1.9382229732
 H          8.9807795300       -4.0901596040        1.8341913702
 H         10.1273081487       -2.0892559234        0.9071633157
 H         10.1239934027        2.0974830320       -0.9109487654
 H          8.9742579634        4.0970825279       -1.8368168963
 H          6.4998241244        4.1292955297       -1.9391885722
 H          5.2084547824        2.2273295787       -1.1034025638
 H          4.6474239249       -1.6248342637       -1.3847855637
 H          2.1765381575       -1.6339894337       -1.3795828006
