  93
 
 N          1.7109774993        6.0160853060       -1.4098668355
 C          1.6384581446        4.9022628743       -1.1434560796
 C          1.5527848240        3.5309339182       -0.8113514554
 C          0.3065126325        2.9144066110       -0.7449518789
 C          0.2324846601        1.5649580411       -0.4192038864
 C         -1.0757109565        0.9055866068       -0.3278809532
 N         -2.1525682006        1.6804575404       -0.3235933244
 C         -3.3187436613        1.0377028024       -0.2519411137
 N         -4.4595322119        1.7866397601       -0.2791168793
 C         -5.7422597082        1.3236213266       -0.5896154888
 C         -6.1599282629        0.0741962542       -1.0161718268
 C         -7.5074260743       -0.1051052525       -1.2818162472
 C         -8.4211445505        0.9338351328       -1.1418776742
 C         -8.0047142030        2.1914147512       -0.7468526711
 C         -6.6587081963        2.3890980020       -0.4736385488
 C         -5.9038812591        3.5497471582       -0.0747179442
 C         -6.2700805690        4.8587043990        0.2046626010
 C         -5.2873211628        5.7533910097        0.5846219325
 C         -3.9617999611        5.3475166466        0.6951043265
 C         -3.5782994862        4.0448450875        0.4226725169
 C         -4.5557140287        3.1484583606        0.0246197591
 N         -3.4445026395       -0.2819118066       -0.1540951338
 C         -2.3053982615       -0.9680311939       -0.1444219946
 N         -2.3781891374       -2.3244783988       -0.0211732690
 C         -3.4800035034       -3.0535607223        0.4402653084
 C         -4.6941177716       -2.6154219269        0.9416775680
 C         -5.6098449029       -3.5690861959        1.3550354975
 C         -5.3256459979       -4.9284460386        1.2868380791
 C         -4.1031264086       -5.3704988085        0.8166668974
 C         -3.1743069969       -4.4294861487        0.3959858849
 C         -1.8313016487       -4.5449590557       -0.1128967666
 C         -1.0199695097       -5.6381598478       -0.3811702701
 C          0.2458213054       -5.4124131281       -0.8887608616
 C          0.6914111621       -4.1188419789       -1.1366669121
 C         -0.1051502810       -3.0162658892       -0.8759457957
 C         -1.3673214621       -3.2347701848       -0.3504096923
 N         -1.0944541428       -0.4175696040       -0.2476465936
 C          1.4026491911        0.8501235682       -0.1718999440
 C          2.6521945100        1.4560732587       -0.2271705424
 Si         4.2259984996        0.4493346081        0.1436734481
 C          4.1550952343       -1.1330883478       -0.8968947133
 C          3.6719435592       -1.0978684004       -2.2035703350
 C          3.6572664007       -2.2351218370       -2.9907874918
 C          4.1275891775       -3.4353984312       -2.4819627783
 C          4.6059793350       -3.4900259790       -1.1827558358
 C          4.6178269034       -2.3487485825       -0.4005052902
 C          5.7376881120        1.4938275584       -0.3246723594
 C          6.4647105775        1.2494858614       -1.4865241238
 C          7.5587885077        2.0283332142       -1.8206531412
 C          7.9470792225        3.0703157885       -0.9949237548
 C          7.2377130725        3.3258523604        0.1676046533
 C          6.1459746253        2.5433292511        0.4971917618
 C          4.3040334297        0.0551839973        1.9956610740
 C          5.5194016916       -0.3090616016        2.5721810543
 C          5.6100236994       -0.6130471153        3.9183251134
 C          4.4803389774       -0.5568607815        4.7184167621
 C          3.2644766488       -0.1943907381        4.1630864534
 C          3.1801506599        0.1077177559        2.8150881501
 C          2.7162829578        2.8040297026       -0.5491055159
 H         -0.5960374801        3.4690166364       -0.9519597607
 H         -5.4600472807       -0.7348761285       -1.1391188358
 H         -7.8506673618       -1.0759168372       -1.6068283340
 H         -9.4644079402        0.7559343634       -1.3547751958
 H         -8.7056299808        3.0066297782       -0.6555055193
 H         -7.3017616303        5.1653080122        0.1284742987
 H         -5.5483097903        6.7778240135        0.8032011105
 H         -3.2108707237        6.0608886226        1.0008299190
 H         -2.5508850991        3.7365766221        0.5182050678
 H         -4.9229405852       -1.5655284093        1.0094199158
 H         -6.5640471092       -3.2428566879        1.7409252916
 H         -6.0657232737       -5.6429117643        1.6143740691
 H         -3.8690551307       -6.4231515536        0.7795918279
 H         -1.3763081334       -6.6400959414       -0.1981026712
 H          0.8960476099       -6.2473614985       -1.1017880734
 H          1.6798824932       -3.9628650276       -1.5408154306
 H          0.2468387508       -2.0191553311       -1.0775831107
 H          1.3218373359       -0.1987366091        0.0701875794
 H          3.3028349653       -0.1649310038       -2.6072625312
 H          3.2779715695       -2.1873051993       -4.0019626153
 H          4.1189641366       -4.3245732868       -3.0962584593
 H          4.9690921632       -4.4245256604       -0.7797262833
 H          4.9900568755       -2.3984741737        0.6122334805
 H          6.1698376533        0.4359343678       -2.1335124140
 H          8.1106613726        1.8226804638       -2.7268085962
 H          8.8006046036        3.6797871484       -1.2543119018
 H          7.5370582691        4.1359259877        0.8174445973
 H          5.6007012700        2.7437906207        1.4091780181
 H          6.4052088369       -0.3471508889        1.9543656742
 H          6.5620254961       -0.8927007884        4.3462320301
 H          4.5474598084       -0.7917650161        5.7708408589
 H          2.3794735439       -0.1460499063        4.7822301453
 H          2.2265101986        0.3941156421        2.3940529624
 H          3.6731415022        3.3016669151       -0.6041830332
