49

C     -5.836529    3.393053    0.209710
C     -6.196295    2.170859    0.775762
C     -5.329548    1.079011    0.695771
C     -4.094229    1.211896    0.049095
N     -3.204959    0.098546   -0.031733
C     -3.575313   -1.210494   -0.350632
C     -4.814377   -1.768618   -0.731036
C     -4.881860   -3.135951   -1.014141
C     -3.748066   -3.933581   -0.943585
C     -2.514189   -3.374397   -0.603492
C     -2.419563   -1.994406   -0.315970
C     -1.326394   -1.143959    0.020043
C      0.057722   -1.377159    0.196320
C      0.926916   -0.337458    0.570643
C      2.363838   -0.586234    0.753793
C      2.831179   -1.584789    1.616318
N      4.124648   -1.907689    1.860777
C      4.996204   -1.148924    1.172502
O      6.342983   -1.303464    1.267978
C      6.913005   -0.383843    0.445215
N      8.245769   -0.262222    0.298211
C      8.599992    0.711507   -0.567352
C      7.724821    1.535378   -1.263913
C      6.351093    1.375183   -1.081197
C      5.930052    0.374369   -0.189730
C      4.686982   -0.121795    0.283924
C      3.328058    0.169418    0.068189
C      0.385464    0.935315    0.776875
C     -0.980580    1.194729    0.607528
C     -1.826731    0.146398    0.196357
C     -3.735336    2.441732   -0.517162
C     -4.608690    3.528337   -0.436654
H     -6.514162    4.240910    0.272118
H     -7.150105    2.069849    1.287750
H     -5.616684    0.148614    1.179936
H     -5.708344   -1.159861   -0.826164
H     -5.833825   -3.576476   -1.301957
H     -3.815427   -4.995036   -1.168324
H     -1.628186   -4.002398   -0.571020
H      0.442827   -2.381305    0.033244
H      2.123148   -2.190370    2.181806
H      9.674451    0.824004   -0.699118
H      8.108402    2.292348   -1.940708
H      5.639512    2.000932   -1.609653
H      3.036779    0.953437   -0.624515
H      1.027008    1.754359    1.100002
H     -1.364318    2.188785    0.816906
H     -2.802326    2.562053   -1.062150
H     -4.334817    4.479411   -0.886570
