  96
 
 C         -3.1392118717       -5.4934323612        0.8909382190
 C         -1.8376188115       -5.4619556559        1.3669088437
 C         -1.0235201398       -4.3773460243        1.1056696962
 C         -1.5024511857       -3.3077589715        0.3492664008
 C         -0.6969733886       -2.1164691492        0.0941195476
 N         -1.3315041767       -0.9516301661        0.0921042518
 C         -0.7226690126        0.2268483324        0.0294745070
 C         -1.4218541716        1.4417936302        0.0239547875
 C         -2.8831778699        1.4425637667        0.0637931890
 C         -3.5955213328        0.4730536067        0.7720575749
 C         -4.9733211285        0.4511277488        0.7627590218
 C         -5.6852235333        1.3984872986        0.0308041112
 N         -7.0838969417        1.3530906795       -0.0085982805
 C         -7.9381960602        2.4155944402        0.2068154990
 C         -7.6482947222        3.7271825184        0.5556771216
 C         -8.7073101839        4.5962841929        0.7350975864
 C        -10.0270313003        4.1767651474        0.5829902929
 C        -10.3228981993        2.8667768691        0.2622704696
 C         -9.2755682719        1.9746283375        0.0764197423
 C         -9.2144767143        0.5740985198       -0.2360717476
 C        -10.1802297069       -0.3904566638       -0.4903026400
 C         -9.7702017880       -1.6747200668       -0.7882241547
 C         -8.4164769804       -1.9977039956       -0.8504261540
 C         -7.4370027666       -1.0555194562       -0.6017966569
 C         -7.8432428352        0.2310909324       -0.2761116663
 C         -4.9867455374        2.3821280430       -0.6659126879
 C         -3.6086626754        2.4094819300       -0.6377057716
 C         -0.6872361205        2.6369883983        0.0024267137
 C          0.6856542299        2.6376138686        0.0187095326
 C          1.4215081383        1.4433462044       -0.0108053880
 C          2.8828411915        1.4459957141       -0.0503888753
 C          3.5964431597        0.4821905083       -0.7651332085
 C          4.9742775116        0.4618839283       -0.7558161975
 C          5.6849442324        1.4050681785       -0.0172941865
 N          7.0836704952        1.3612339568        0.0219582472
 C          7.8445342534        0.2384498884        0.2817724884
 C          7.4400571765       -1.0510220591        0.5982079597
 C          8.4208105954       -1.9935387969        0.8404553742
 C          9.7740894182       -1.6681831555        0.7809710631
 C         10.1823558237       -0.3812475106        0.4923033922
 C          9.2152909834        0.5836934116        0.2446136777
 C          9.2744841308        1.9864924693       -0.0578968785
 C         10.3206034845        2.8814386400       -0.2369931042
 C         10.0229785780        4.1932564483       -0.5484780748
 C          8.7027127874        4.6119487819       -0.6981186064
 C          7.6448821342        3.7400749683       -0.5252919770
 C          7.9365267992        2.4264582790       -0.1856256312
 C          4.9851725005        2.3830156272        0.6861146151
 C          3.6070687379        2.4089168475        0.6578763935
 C          0.7236018490        0.2277280567       -0.0245883581
 N          1.3335925533       -0.9497210654       -0.0951536223
 C          0.7001661677       -2.1151241184       -0.1049528592
 C          1.5066777905       -3.3040252986       -0.3678542183
 C          2.8260312912       -3.3340219770        0.0882494333
 C          3.6347954232       -4.4192589296       -0.1855405521
 C          3.1452025145       -5.4848755879       -0.9234722093
 C          1.8436220827       -5.4513549972       -1.3993409335
 C          1.0286503547       -4.3690930267       -1.1311784584
 C         -2.8218081984       -3.3358673363       -0.1069469045
 C         -3.6296976391       -4.4234786571        0.1599073763
 H         -3.7707601803       -6.3445200950        1.0976713415
 H         -1.4570739383       -6.2853975305        1.9531981396
 H         -0.0181744472       -4.3504017771        1.4988830715
 H         -3.0596139695       -0.2639170895        1.3501223906
 H         -5.5083785095       -0.2912926360        1.3359834087
 H         -6.6301090045        4.0573555079        0.6957140928
 H         -8.5074601166        5.6233311496        1.0032065671
 H        -10.8267679690        4.8876169364        0.7287213295
 H        -11.3460277002        2.5373560788        0.1609622559
 H        -11.2288171653       -0.1355231747       -0.4587414553
 H        -10.5052357815       -2.4407327941       -0.9860172093
 H         -8.1263082672       -3.0071651692       -1.1026655764
 H         -6.3906794948       -1.3120148779       -0.6705343011
 H         -5.5316932498        3.1059749913       -1.2536311636
 H         -3.0844462888        3.1608610662       -1.2089799530
 H         -1.2194841497        3.5757313471        0.0131170201
 H          1.2169566126        3.5769451027        0.0143190394
 H          3.0614888308       -0.2514827161       -1.3482563231
 H          5.5102970102       -0.2759315963       -1.3340635901
 H          6.3940870614       -1.3095119558        0.6648144466
 H          8.1320162927       -3.0051796989        1.0854351633
 H         10.5101645617       -2.4345222208        0.9735524268
 H         11.2305831003       -0.1245832127        0.4628887680
 H         11.3441661377        2.5527706274       -0.1376405762
 H         10.8217459562        4.9062778823       -0.6888162127
 H          8.5014865660        5.6405886793       -0.9589954933
 H          6.6262804668        4.0697819153       -0.6633908593
 H          5.5291582735        3.1034344180        1.2789137849
 H          3.0818680512        3.1557169404        1.2342287815
 H          3.1994773803       -2.4974240127        0.6600352687
 H          4.6526716438       -4.4339378246        0.1760553624
 H          3.7774276614       -6.3341281766       -1.1356128734
 H          1.4637673075       -6.2713022268       -1.9909504609
 H          0.0233086172       -4.3404174068       -1.5242822231
 H         -3.1959597761       -2.4958997622       -0.6733060644
 H         -4.6475919214       -4.4366236745       -0.2016936521
